data_NiPyC2_experiment_with_Kr_PM
_symmetry_space_group_name_H-M    'P1'
_cell_length_a    31.264000
_cell_length_b    37.570200
_cell_length_c    30.830400
_cell_angle_alpha    90.000000
_cell_angle_beta    91.269000
_cell_angle_gamma    90.000000
_symmetry_Int_Tables_number 1

loop_
_symmetry_equiv_pos_as_xyz
'x,y,z'

loop_
_atom_site_label
_atom_site_type_symbol
_atom_site_fract_x
_atom_site_fract_y
_atom_site_fract_z
Ni1    Ni    0.098960    0.251320    0.279810
O1    O    0.048260    0.116540    0.130967
O2    O    0.150980    0.044360    0.123400
O3    O    0.187380    0.117410    0.165767
O4    O    0.013300    0.039933    0.158067
N1    N    0.125580    0.280967    0.232067
N2    N    0.072220    0.215367    0.238367
C1    C    0.117560    0.319767    0.171133
H1    H    0.100040    0.328733    0.148033
C2    C    0.158640    0.332667    0.177900
C3    C    0.183420    0.318200    0.211800
H2    H    0.012040    0.325933    0.216833
C4    C    0.081540    0.173033    0.181367
H3    H    0.099020    0.163667    0.159267
C5    C    0.096060    0.201067    0.207233
H4    H    0.123820    0.210433    0.202633
C6    C    0.102300    0.293633    0.198333
H5    H    0.074420    0.284333    0.193033
C7    C    0.165700    0.292567    0.237900
H6    H    0.182660    0.282767    0.260867
C8    C    0.032900    0.201500    0.244867
H7    H    0.015860    0.211533    0.266900
C9    C    0.016520    0.173433    0.220867
H8    H    0.188920    0.164167    0.226367
C10    C    0.041580    0.159000    0.188200
C11    C    0.175600    0.029767    0.151667
C12    C    0.024400    0.128733    0.160500
Ni2    Ni    0.198960    0.082013    0.113143
O5    O    0.148260    0.216793    0.297633
O6    O    0.050980    0.288973    0.290067
O7    O    0.087380    0.215923    0.332433
O8    O    0.113300    0.293400    0.324733
N3    N    0.025580    0.052367    0.065400
N4    N    0.172220    0.117967    0.071700
C13    C    0.017560    0.013567    0.004467
H9    H    0.000040    0.004600    0.314700
C14    C    0.058640    0.000667    0.011233
C15    C    0.083420    0.015133    0.045133
H10    H    0.112040    0.007400    0.050167
C16    C    0.181540    0.160300    0.014700
H11    H    0.199020    0.169667    0.325933
C17    C    0.196060    0.132267    0.040567
H12    H    0.023820    0.122900    0.035967
C18    C    0.002300    0.039700    0.031667
H13    H    0.174420    0.049000    0.026367
C19    C    0.065700    0.040767    0.071233
H14    H    0.082660    0.050567    0.094200
C20    C    0.132900    0.131833    0.078200
H15    H    0.115860    0.121800    0.100233
C21    C    0.116520    0.159900    0.054200
H16    H    0.088920    0.169167    0.059700
C22    C    0.141580    0.174333    0.021533
C23    C    0.075600    0.303567    0.318333
C24    C    0.124400    0.204600    0.327167
Ni3    Ni    0.098960    0.251320    0.613143
O9    O    0.048260    0.116540    0.464300
O10    O    0.150980    0.044360    0.456733
O11    O    0.187380    0.117410    0.499100
O12    O    0.013300    0.039933    0.491400
N5    N    0.125580    0.280967    0.565400
N6    N    0.072220    0.215367    0.571700
C25    C    0.117560    0.319767    0.504467
H17    H    0.100040    0.328733    0.481367
C26    C    0.158640    0.332667    0.511233
C27    C    0.183420    0.318200    0.545133
H18    H    0.012040    0.325933    0.550167
C28    C    0.081540    0.173033    0.514700
H19    H    0.099020    0.163667    0.492600
C29    C    0.096060    0.201067    0.540567
H20    H    0.123820    0.210433    0.535967
C30    C    0.102300    0.293633    0.531667
H21    H    0.074420    0.284333    0.526367
C31    C    0.165700    0.292567    0.571233
H22    H    0.182660    0.282767    0.594200
C32    C    0.032900    0.201500    0.578200
H23    H    0.015860    0.211533    0.600233
C33    C    0.016520    0.173433    0.554200
H24    H    0.188920    0.164167    0.559700
C34    C    0.041580    0.159000    0.521533
C35    C    0.175600    0.029767    0.485000
C36    C    0.024400    0.128733    0.493833
Ni4    Ni    0.198960    0.082013    0.446477
O13    O    0.148260    0.216793    0.630967
O14    O    0.050980    0.288973    0.623400
O15    O    0.087380    0.215923    0.665767
O16    O    0.113300    0.293400    0.658067
N7    N    0.025580    0.052367    0.398733
N8    N    0.172220    0.117967    0.405033
C37    C    0.017560    0.013567    0.337800
H25    H    0.000040    0.004600    0.648033
C38    C    0.058640    0.000667    0.344567
C39    C    0.083420    0.015133    0.378467
H26    H    0.112040    0.007400    0.383500
C40    C    0.181540    0.160300    0.348033
H27    H    0.199020    0.169667    0.659267
C41    C    0.196060    0.132267    0.373900
H28    H    0.023820    0.122900    0.369300
C42    C    0.002300    0.039700    0.365000
H29    H    0.174420    0.049000    0.359700
C43    C    0.065700    0.040767    0.404567
H30    H    0.082660    0.050567    0.427533
C44    C    0.132900    0.131833    0.411533
H31    H    0.115860    0.121800    0.433567
C45    C    0.116520    0.159900    0.387533
H32    H    0.088920    0.169167    0.393033
C46    C    0.141580    0.174333    0.354867
C47    C    0.075600    0.303567    0.651667
C48    C    0.124400    0.204600    0.660500
Ni5    Ni    0.098960    0.251320    0.946477
O17    O    0.048260    0.116540    0.797633
O18    O    0.150980    0.044360    0.790067
O19    O    0.187380    0.117410    0.832433
O20    O    0.013300    0.039933    0.824733
N9    N    0.125580    0.280967    0.898733
N10    N    0.072220    0.215367    0.905033
C49    C    0.117560    0.319767    0.837800
H33    H    0.100040    0.328733    0.814700
C50    C    0.158640    0.332667    0.844567
C51    C    0.183420    0.318200    0.878467
H34    H    0.012040    0.325933    0.883500
C52    C    0.081540    0.173033    0.848033
H35    H    0.099020    0.163667    0.825933
C53    C    0.096060    0.201067    0.873900
H36    H    0.123820    0.210433    0.869300
C54    C    0.102300    0.293633    0.865000
H37    H    0.074420    0.284333    0.859700
C55    C    0.165700    0.292567    0.904567
H38    H    0.182660    0.282767    0.927533
C56    C    0.032900    0.201500    0.911533
H39    H    0.015860    0.211533    0.933567
C57    C    0.016520    0.173433    0.887533
H40    H    0.188920    0.164167    0.893033
C58    C    0.041580    0.159000    0.854867
C59    C    0.175600    0.029767    0.818333
C60    C    0.024400    0.128733    0.827167
Ni6    Ni    0.198960    0.082013    0.779810
O21    O    0.148260    0.216793    0.964300
O22    O    0.050980    0.288973    0.956733
O23    O    0.087380    0.215923    0.999100
O24    O    0.113300    0.293400    0.991400
N11    N    0.025580    0.052367    0.732067
N12    N    0.172220    0.117967    0.738367
C61    C    0.017560    0.013567    0.671133
H41    H    0.000040    0.004600    0.981367
C62    C    0.058640    0.000667    0.677900
C63    C    0.083420    0.015133    0.711800
H42    H    0.112040    0.007400    0.716833
C64    C    0.181540    0.160300    0.681367
H43    H    0.199020    0.169667    0.992600
C65    C    0.196060    0.132267    0.707233
H44    H    0.023820    0.122900    0.702633
C66    C    0.002300    0.039700    0.698333
H45    H    0.174420    0.049000    0.693033
C67    C    0.065700    0.040767    0.737900
H46    H    0.082660    0.050567    0.760867
C68    C    0.132900    0.131833    0.744867
H47    H    0.115860    0.121800    0.766900
C69    C    0.116520    0.159900    0.720867
H48    H    0.088920    0.169167    0.726367
C70    C    0.141580    0.174333    0.688200
C71    C    0.075600    0.303567    0.985000
C72    C    0.124400    0.204600    0.993833
Ni7    Ni    0.098960    0.584653    0.279810
O25    O    0.048260    0.449873    0.130967
O26    O    0.150980    0.377693    0.123400
O27    O    0.187380    0.450743    0.165767
O28    O    0.013300    0.373267    0.158067
N13    N    0.125580    0.614300    0.232067
N14    N    0.072220    0.548700    0.238367
C73    C    0.117560    0.653100    0.171133
H49    H    0.100040    0.662067    0.148033
C74    C    0.158640    0.666000    0.177900
C75    C    0.183420    0.651533    0.211800
H50    H    0.012040    0.659267    0.216833
C76    C    0.081540    0.506367    0.181367
H51    H    0.099020    0.497000    0.159267
C77    C    0.096060    0.534400    0.207233
H52    H    0.123820    0.543767    0.202633
C78    C    0.102300    0.626967    0.198333
H53    H    0.074420    0.617667    0.193033
C79    C    0.165700    0.625900    0.237900
H54    H    0.182660    0.616100    0.260867
C80    C    0.032900    0.534833    0.244867
H55    H    0.015860    0.544867    0.266900
C81    C    0.016520    0.506767    0.220867
H56    H    0.188920    0.497500    0.226367
C82    C    0.041580    0.492333    0.188200
C83    C    0.175600    0.363100    0.151667
C84    C    0.024400    0.462067    0.160500
Ni8    Ni    0.198960    0.415347    0.113143
O29    O    0.148260    0.550127    0.297633
O30    O    0.050980    0.622307    0.290067
O31    O    0.087380    0.549257    0.332433
O32    O    0.113300    0.626733    0.324733
N15    N    0.025580    0.385700    0.065400
N16    N    0.172220    0.451300    0.071700
C85    C    0.017560    0.346900    0.004467
H57    H    0.000040    0.337933    0.314700
C86    C    0.058640    0.334000    0.011233
C87    C    0.083420    0.348467    0.045133
H58    H    0.112040    0.340733    0.050167
C88    C    0.181540    0.493633    0.014700
H59    H    0.199020    0.503000    0.325933
C89    C    0.196060    0.465600    0.040567
H60    H    0.023820    0.456233    0.035967
C90    C    0.002300    0.373033    0.031667
H61    H    0.174420    0.382333    0.026367
C91    C    0.065700    0.374100    0.071233
H62    H    0.082660    0.383900    0.094200
C92    C    0.132900    0.465167    0.078200
H63    H    0.115860    0.455133    0.100233
C93    C    0.116520    0.493233    0.054200
H64    H    0.088920    0.502500    0.059700
C94    C    0.141580    0.507667    0.021533
C95    C    0.075600    0.636900    0.318333
C96    C    0.124400    0.537933    0.327167
Ni9    Ni    0.098960    0.584653    0.613143
O33    O    0.048260    0.449873    0.464300
O34    O    0.150980    0.377693    0.456733
O35    O    0.187380    0.450743    0.499100
O36    O    0.013300    0.373267    0.491400
N17    N    0.125580    0.614300    0.565400
N18    N    0.072220    0.548700    0.571700
C97    C    0.117560    0.653100    0.504467
H65    H    0.100040    0.662067    0.481367
C98    C    0.158640    0.666000    0.511233
C99    C    0.183420    0.651533    0.545133
H66    H    0.012040    0.659267    0.550167
C100    C    0.081540    0.506367    0.514700
H67    H    0.099020    0.497000    0.492600
C101    C    0.096060    0.534400    0.540567
H68    H    0.123820    0.543767    0.535967
C102    C    0.102300    0.626967    0.531667
H69    H    0.074420    0.617667    0.526367
C103    C    0.165700    0.625900    0.571233
H70    H    0.182660    0.616100    0.594200
C104    C    0.032900    0.534833    0.578200
H71    H    0.015860    0.544867    0.600233
C105    C    0.016520    0.506767    0.554200
H72    H    0.188920    0.497500    0.559700
C106    C    0.041580    0.492333    0.521533
C107    C    0.175600    0.363100    0.485000
C108    C    0.024400    0.462067    0.493833
Ni10    Ni    0.198960    0.415347    0.446477
O37    O    0.148260    0.550127    0.630967
O38    O    0.050980    0.622307    0.623400
O39    O    0.087380    0.549257    0.665767
O40    O    0.113300    0.626733    0.658067
N19    N    0.025580    0.385700    0.398733
N20    N    0.172220    0.451300    0.405033
C109    C    0.017560    0.346900    0.337800
H73    H    0.000040    0.337933    0.648033
C110    C    0.058640    0.334000    0.344567
C111    C    0.083420    0.348467    0.378467
H74    H    0.112040    0.340733    0.383500
C112    C    0.181540    0.493633    0.348033
H75    H    0.199020    0.503000    0.659267
C113    C    0.196060    0.465600    0.373900
H76    H    0.023820    0.456233    0.369300
C114    C    0.002300    0.373033    0.365000
H77    H    0.174420    0.382333    0.359700
C115    C    0.065700    0.374100    0.404567
H78    H    0.082660    0.383900    0.427533
C116    C    0.132900    0.465167    0.411533
H79    H    0.115860    0.455133    0.433567
C117    C    0.116520    0.493233    0.387533
H80    H    0.088920    0.502500    0.393033
C118    C    0.141580    0.507667    0.354867
C119    C    0.075600    0.636900    0.651667
C120    C    0.124400    0.537933    0.660500
Ni11    Ni    0.098960    0.584653    0.946477
O41    O    0.048260    0.449873    0.797633
O42    O    0.150980    0.377693    0.790067
O43    O    0.187380    0.450743    0.832433
O44    O    0.013300    0.373267    0.824733
N21    N    0.125580    0.614300    0.898733
N22    N    0.072220    0.548700    0.905033
C121    C    0.117560    0.653100    0.837800
H81    H    0.100040    0.662067    0.814700
C122    C    0.158640    0.666000    0.844567
C123    C    0.183420    0.651533    0.878467
H82    H    0.012040    0.659267    0.883500
C124    C    0.081540    0.506367    0.848033
H83    H    0.099020    0.497000    0.825933
C125    C    0.096060    0.534400    0.873900
H84    H    0.123820    0.543767    0.869300
C126    C    0.102300    0.626967    0.865000
H85    H    0.074420    0.617667    0.859700
C127    C    0.165700    0.625900    0.904567
H86    H    0.182660    0.616100    0.927533
C128    C    0.032900    0.534833    0.911533
H87    H    0.015860    0.544867    0.933567
C129    C    0.016520    0.506767    0.887533
H88    H    0.188920    0.497500    0.893033
C130    C    0.041580    0.492333    0.854867
C131    C    0.175600    0.363100    0.818333
C132    C    0.024400    0.462067    0.827167
Ni12    Ni    0.198960    0.415347    0.779810
O45    O    0.148260    0.550127    0.964300
O46    O    0.050980    0.622307    0.956733
O47    O    0.087380    0.549257    0.999100
O48    O    0.113300    0.626733    0.991400
N23    N    0.025580    0.385700    0.732067
N24    N    0.172220    0.451300    0.738367
C133    C    0.017560    0.346900    0.671133
H89    H    0.000040    0.337933    0.981367
C134    C    0.058640    0.334000    0.677900
C135    C    0.083420    0.348467    0.711800
H90    H    0.112040    0.340733    0.716833
C136    C    0.181540    0.493633    0.681367
H91    H    0.199020    0.503000    0.992600
C137    C    0.196060    0.465600    0.707233
H92    H    0.023820    0.456233    0.702633
C138    C    0.002300    0.373033    0.698333
H93    H    0.174420    0.382333    0.693033
C139    C    0.065700    0.374100    0.737900
H94    H    0.082660    0.383900    0.760867
C140    C    0.132900    0.465167    0.744867
H95    H    0.115860    0.455133    0.766900
C141    C    0.116520    0.493233    0.720867
H96    H    0.088920    0.502500    0.726367
C142    C    0.141580    0.507667    0.688200
C143    C    0.075600    0.636900    0.985000
C144    C    0.124400    0.537933    0.993833
Ni13    Ni    0.098960    0.917987    0.279810
O49    O    0.048260    0.783207    0.130967
O50    O    0.150980    0.711027    0.123400
O51    O    0.187380    0.784077    0.165767
O52    O    0.013300    0.706600    0.158067
N25    N    0.125580    0.947633    0.232067
N26    N    0.072220    0.882033    0.238367
C145    C    0.117560    0.986433    0.171133
H97    H    0.100040    0.995400    0.148033
C146    C    0.158640    0.999333    0.177900
C147    C    0.183420    0.984867    0.211800
H98    H    0.012040    0.992600    0.216833
C148    C    0.081540    0.839700    0.181367
H99    H    0.099020    0.830333    0.159267
C149    C    0.096060    0.867733    0.207233
H100    H    0.123820    0.877100    0.202633
C150    C    0.102300    0.960300    0.198333
H101    H    0.074420    0.951000    0.193033
C151    C    0.165700    0.959233    0.237900
H102    H    0.182660    0.949433    0.260867
C152    C    0.032900    0.868167    0.244867
H103    H    0.015860    0.878200    0.266900
C153    C    0.016520    0.840100    0.220867
H104    H    0.188920    0.830833    0.226367
C154    C    0.041580    0.825667    0.188200
C155    C    0.175600    0.696433    0.151667
C156    C    0.024400    0.795400    0.160500
Ni14    Ni    0.198960    0.748680    0.113143
O53    O    0.148260    0.883460    0.297633
O54    O    0.050980    0.955640    0.290067
O55    O    0.087380    0.882590    0.332433
O56    O    0.113300    0.960067    0.324733
N27    N    0.025580    0.719033    0.065400
N28    N    0.172220    0.784633    0.071700
C157    C    0.017560    0.680233    0.004467
H105    H    0.000040    0.671267    0.314700
C158    C    0.058640    0.667333    0.011233
C159    C    0.083420    0.681800    0.045133
H106    H    0.112040    0.674067    0.050167
C160    C    0.181540    0.826967    0.014700
H107    H    0.199020    0.836333    0.325933
C161    C    0.196060    0.798933    0.040567
H108    H    0.023820    0.789567    0.035967
C162    C    0.002300    0.706367    0.031667
H109    H    0.174420    0.715667    0.026367
C163    C    0.065700    0.707433    0.071233
H110    H    0.082660    0.717233    0.094200
C164    C    0.132900    0.798500    0.078200
H111    H    0.115860    0.788467    0.100233
C165    C    0.116520    0.826567    0.054200
H112    H    0.088920    0.835833    0.059700
C166    C    0.141580    0.841000    0.021533
C167    C    0.075600    0.970233    0.318333
C168    C    0.124400    0.871267    0.327167
Ni15    Ni    0.098960    0.917987    0.613143
O57    O    0.048260    0.783207    0.464300
O58    O    0.150980    0.711027    0.456733
O59    O    0.187380    0.784077    0.499100
O60    O    0.013300    0.706600    0.491400
N29    N    0.125580    0.947633    0.565400
N30    N    0.072220    0.882033    0.571700
C169    C    0.117560    0.986433    0.504467
H113    H    0.100040    0.995400    0.481367
C170    C    0.158640    0.999333    0.511233
C171    C    0.183420    0.984867    0.545133
H114    H    0.012040    0.992600    0.550167
C172    C    0.081540    0.839700    0.514700
H115    H    0.099020    0.830333    0.492600
C173    C    0.096060    0.867733    0.540567
H116    H    0.123820    0.877100    0.535967
C174    C    0.102300    0.960300    0.531667
H117    H    0.074420    0.951000    0.526367
C175    C    0.165700    0.959233    0.571233
H118    H    0.182660    0.949433    0.594200
C176    C    0.032900    0.868167    0.578200
H119    H    0.015860    0.878200    0.600233
C177    C    0.016520    0.840100    0.554200
H120    H    0.188920    0.830833    0.559700
C178    C    0.041580    0.825667    0.521533
C179    C    0.175600    0.696433    0.485000
C180    C    0.024400    0.795400    0.493833
Ni16    Ni    0.198960    0.748680    0.446477
O61    O    0.148260    0.883460    0.630967
O62    O    0.050980    0.955640    0.623400
O63    O    0.087380    0.882590    0.665767
O64    O    0.113300    0.960067    0.658067
N31    N    0.025580    0.719033    0.398733
N32    N    0.172220    0.784633    0.405033
C181    C    0.017560    0.680233    0.337800
H121    H    0.000040    0.671267    0.648033
C182    C    0.058640    0.667333    0.344567
C183    C    0.083420    0.681800    0.378467
H122    H    0.112040    0.674067    0.383500
C184    C    0.181540    0.826967    0.348033
H123    H    0.199020    0.836333    0.659267
C185    C    0.196060    0.798933    0.373900
H124    H    0.023820    0.789567    0.369300
C186    C    0.002300    0.706367    0.365000
H125    H    0.174420    0.715667    0.359700
C187    C    0.065700    0.707433    0.404567
H126    H    0.082660    0.717233    0.427533
C188    C    0.132900    0.798500    0.411533
H127    H    0.115860    0.788467    0.433567
C189    C    0.116520    0.826567    0.387533
H128    H    0.088920    0.835833    0.393033
C190    C    0.141580    0.841000    0.354867
C191    C    0.075600    0.970233    0.651667
C192    C    0.124400    0.871267    0.660500
Ni17    Ni    0.098960    0.917987    0.946477
O65    O    0.048260    0.783207    0.797633
O66    O    0.150980    0.711027    0.790067
O67    O    0.187380    0.784077    0.832433
O68    O    0.013300    0.706600    0.824733
N33    N    0.125580    0.947633    0.898733
N34    N    0.072220    0.882033    0.905033
C193    C    0.117560    0.986433    0.837800
H129    H    0.100040    0.995400    0.814700
C194    C    0.158640    0.999333    0.844567
C195    C    0.183420    0.984867    0.878467
H130    H    0.012040    0.992600    0.883500
C196    C    0.081540    0.839700    0.848033
H131    H    0.099020    0.830333    0.825933
C197    C    0.096060    0.867733    0.873900
H132    H    0.123820    0.877100    0.869300
C198    C    0.102300    0.960300    0.865000
H133    H    0.074420    0.951000    0.859700
C199    C    0.165700    0.959233    0.904567
H134    H    0.182660    0.949433    0.927533
C200    C    0.032900    0.868167    0.911533
H135    H    0.015860    0.878200    0.933567
C201    C    0.016520    0.840100    0.887533
H136    H    0.188920    0.830833    0.893033
C202    C    0.041580    0.825667    0.854867
C203    C    0.175600    0.696433    0.818333
C204    C    0.024400    0.795400    0.827167
Ni18    Ni    0.198960    0.748680    0.779810
O69    O    0.148260    0.883460    0.964300
O70    O    0.050980    0.955640    0.956733
O71    O    0.087380    0.882590    0.999100
O72    O    0.113300    0.960067    0.991400
N35    N    0.025580    0.719033    0.732067
N36    N    0.172220    0.784633    0.738367
C205    C    0.017560    0.680233    0.671133
H137    H    0.000040    0.671267    0.981367
C206    C    0.058640    0.667333    0.677900
C207    C    0.083420    0.681800    0.711800
H138    H    0.112040    0.674067    0.716833
C208    C    0.181540    0.826967    0.681367
H139    H    0.199020    0.836333    0.992600
C209    C    0.196060    0.798933    0.707233
H140    H    0.023820    0.789567    0.702633
C210    C    0.002300    0.706367    0.698333
H141    H    0.174420    0.715667    0.693033
C211    C    0.065700    0.707433    0.737900
H142    H    0.082660    0.717233    0.760867
C212    C    0.132900    0.798500    0.744867
H143    H    0.115860    0.788467    0.766900
C213    C    0.116520    0.826567    0.720867
H144    H    0.088920    0.835833    0.726367
C214    C    0.141580    0.841000    0.688200
C215    C    0.075600    0.970233    0.985000
C216    C    0.124400    0.871267    0.993833
Ni19    Ni    0.298960    0.251320    0.279810
O73    O    0.248260    0.116540    0.130967
O74    O    0.350980    0.044360    0.123400
O75    O    0.387380    0.117410    0.165767
O76    O    0.213300    0.039933    0.158067
N37    N    0.325580    0.280967    0.232067
N38    N    0.272220    0.215367    0.238367
C217    C    0.317560    0.319767    0.171133
H145    H    0.300040    0.328733    0.148033
C218    C    0.358640    0.332667    0.177900
C219    C    0.383420    0.318200    0.211800
H146    H    0.212040    0.325933    0.216833
C220    C    0.281540    0.173033    0.181367
H147    H    0.299020    0.163667    0.159267
C221    C    0.296060    0.201067    0.207233
H148    H    0.323820    0.210433    0.202633
C222    C    0.302300    0.293633    0.198333
H149    H    0.274420    0.284333    0.193033
C223    C    0.365700    0.292567    0.237900
H150    H    0.382660    0.282767    0.260867
C224    C    0.232900    0.201500    0.244867
H151    H    0.215860    0.211533    0.266900
C225    C    0.216520    0.173433    0.220867
H152    H    0.388920    0.164167    0.226367
C226    C    0.241580    0.159000    0.188200
C227    C    0.375600    0.029767    0.151667
C228    C    0.224400    0.128733    0.160500
Ni20    Ni    0.398960    0.082013    0.113143
O77    O    0.348260    0.216793    0.297633
O78    O    0.250980    0.288973    0.290067
O79    O    0.287380    0.215923    0.332433
O80    O    0.313300    0.293400    0.324733
N39    N    0.225580    0.052367    0.065400
N40    N    0.372220    0.117967    0.071700
C229    C    0.217560    0.013567    0.004467
H153    H    0.200040    0.004600    0.314700
C230    C    0.258640    0.000667    0.011233
C231    C    0.283420    0.015133    0.045133
H154    H    0.312040    0.007400    0.050167
C232    C    0.381540    0.160300    0.014700
H155    H    0.399020    0.169667    0.325933
C233    C    0.396060    0.132267    0.040567
H156    H    0.223820    0.122900    0.035967
C234    C    0.202300    0.039700    0.031667
H157    H    0.374420    0.049000    0.026367
C235    C    0.265700    0.040767    0.071233
H158    H    0.282660    0.050567    0.094200
C236    C    0.332900    0.131833    0.078200
H159    H    0.315860    0.121800    0.100233
C237    C    0.316520    0.159900    0.054200
H160    H    0.288920    0.169167    0.059700
C238    C    0.341580    0.174333    0.021533
C239    C    0.275600    0.303567    0.318333
C240    C    0.324400    0.204600    0.327167
Ni21    Ni    0.298960    0.251320    0.613143
O81    O    0.248260    0.116540    0.464300
O82    O    0.350980    0.044360    0.456733
O83    O    0.387380    0.117410    0.499100
O84    O    0.213300    0.039933    0.491400
N41    N    0.325580    0.280967    0.565400
N42    N    0.272220    0.215367    0.571700
C241    C    0.317560    0.319767    0.504467
H161    H    0.300040    0.328733    0.481367
C242    C    0.358640    0.332667    0.511233
C243    C    0.383420    0.318200    0.545133
H162    H    0.212040    0.325933    0.550167
C244    C    0.281540    0.173033    0.514700
H163    H    0.299020    0.163667    0.492600
C245    C    0.296060    0.201067    0.540567
H164    H    0.323820    0.210433    0.535967
C246    C    0.302300    0.293633    0.531667
H165    H    0.274420    0.284333    0.526367
C247    C    0.365700    0.292567    0.571233
H166    H    0.382660    0.282767    0.594200
C248    C    0.232900    0.201500    0.578200
H167    H    0.215860    0.211533    0.600233
C249    C    0.216520    0.173433    0.554200
H168    H    0.388920    0.164167    0.559700
C250    C    0.241580    0.159000    0.521533
C251    C    0.375600    0.029767    0.485000
C252    C    0.224400    0.128733    0.493833
Ni22    Ni    0.398960    0.082013    0.446477
O85    O    0.348260    0.216793    0.630967
O86    O    0.250980    0.288973    0.623400
O87    O    0.287380    0.215923    0.665767
O88    O    0.313300    0.293400    0.658067
N43    N    0.225580    0.052367    0.398733
N44    N    0.372220    0.117967    0.405033
C253    C    0.217560    0.013567    0.337800
H169    H    0.200040    0.004600    0.648033
C254    C    0.258640    0.000667    0.344567
C255    C    0.283420    0.015133    0.378467
H170    H    0.312040    0.007400    0.383500
C256    C    0.381540    0.160300    0.348033
H171    H    0.399020    0.169667    0.659267
C257    C    0.396060    0.132267    0.373900
H172    H    0.223820    0.122900    0.369300
C258    C    0.202300    0.039700    0.365000
H173    H    0.374420    0.049000    0.359700
C259    C    0.265700    0.040767    0.404567
H174    H    0.282660    0.050567    0.427533
C260    C    0.332900    0.131833    0.411533
H175    H    0.315860    0.121800    0.433567
C261    C    0.316520    0.159900    0.387533
H176    H    0.288920    0.169167    0.393033
C262    C    0.341580    0.174333    0.354867
C263    C    0.275600    0.303567    0.651667
C264    C    0.324400    0.204600    0.660500
Ni23    Ni    0.298960    0.251320    0.946477
O89    O    0.248260    0.116540    0.797633
O90    O    0.350980    0.044360    0.790067
O91    O    0.387380    0.117410    0.832433
O92    O    0.213300    0.039933    0.824733
N45    N    0.325580    0.280967    0.898733
N46    N    0.272220    0.215367    0.905033
C265    C    0.317560    0.319767    0.837800
H177    H    0.300040    0.328733    0.814700
C266    C    0.358640    0.332667    0.844567
C267    C    0.383420    0.318200    0.878467
H178    H    0.212040    0.325933    0.883500
C268    C    0.281540    0.173033    0.848033
H179    H    0.299020    0.163667    0.825933
C269    C    0.296060    0.201067    0.873900
H180    H    0.323820    0.210433    0.869300
C270    C    0.302300    0.293633    0.865000
H181    H    0.274420    0.284333    0.859700
C271    C    0.365700    0.292567    0.904567
H182    H    0.382660    0.282767    0.927533
C272    C    0.232900    0.201500    0.911533
H183    H    0.215860    0.211533    0.933567
C273    C    0.216520    0.173433    0.887533
H184    H    0.388920    0.164167    0.893033
C274    C    0.241580    0.159000    0.854867
C275    C    0.375600    0.029767    0.818333
C276    C    0.224400    0.128733    0.827167
Ni24    Ni    0.398960    0.082013    0.779810
O93    O    0.348260    0.216793    0.964300
O94    O    0.250980    0.288973    0.956733
O95    O    0.287380    0.215923    0.999100
O96    O    0.313300    0.293400    0.991400
N47    N    0.225580    0.052367    0.732067
N48    N    0.372220    0.117967    0.738367
C277    C    0.217560    0.013567    0.671133
H185    H    0.200040    0.004600    0.981367
C278    C    0.258640    0.000667    0.677900
C279    C    0.283420    0.015133    0.711800
H186    H    0.312040    0.007400    0.716833
C280    C    0.381540    0.160300    0.681367
H187    H    0.399020    0.169667    0.992600
C281    C    0.396060    0.132267    0.707233
H188    H    0.223820    0.122900    0.702633
C282    C    0.202300    0.039700    0.698333
H189    H    0.374420    0.049000    0.693033
C283    C    0.265700    0.040767    0.737900
H190    H    0.282660    0.050567    0.760867
C284    C    0.332900    0.131833    0.744867
H191    H    0.315860    0.121800    0.766900
C285    C    0.316520    0.159900    0.720867
H192    H    0.288920    0.169167    0.726367
C286    C    0.341580    0.174333    0.688200
C287    C    0.275600    0.303567    0.985000
C288    C    0.324400    0.204600    0.993833
Ni25    Ni    0.298960    0.584653    0.279810
O97    O    0.248260    0.449873    0.130967
O98    O    0.350980    0.377693    0.123400
O99    O    0.387380    0.450743    0.165767
O100    O    0.213300    0.373267    0.158067
N49    N    0.325580    0.614300    0.232067
N50    N    0.272220    0.548700    0.238367
C289    C    0.317560    0.653100    0.171133
H193    H    0.300040    0.662067    0.148033
C290    C    0.358640    0.666000    0.177900
C291    C    0.383420    0.651533    0.211800
H194    H    0.212040    0.659267    0.216833
C292    C    0.281540    0.506367    0.181367
H195    H    0.299020    0.497000    0.159267
C293    C    0.296060    0.534400    0.207233
H196    H    0.323820    0.543767    0.202633
C294    C    0.302300    0.626967    0.198333
H197    H    0.274420    0.617667    0.193033
C295    C    0.365700    0.625900    0.237900
H198    H    0.382660    0.616100    0.260867
C296    C    0.232900    0.534833    0.244867
H199    H    0.215860    0.544867    0.266900
C297    C    0.216520    0.506767    0.220867
H200    H    0.388920    0.497500    0.226367
C298    C    0.241580    0.492333    0.188200
C299    C    0.375600    0.363100    0.151667
C300    C    0.224400    0.462067    0.160500
Ni26    Ni    0.398960    0.415347    0.113143
O101    O    0.348260    0.550127    0.297633
O102    O    0.250980    0.622307    0.290067
O103    O    0.287380    0.549257    0.332433
O104    O    0.313300    0.626733    0.324733
N51    N    0.225580    0.385700    0.065400
N52    N    0.372220    0.451300    0.071700
C301    C    0.217560    0.346900    0.004467
H201    H    0.200040    0.337933    0.314700
C302    C    0.258640    0.334000    0.011233
C303    C    0.283420    0.348467    0.045133
H202    H    0.312040    0.340733    0.050167
C304    C    0.381540    0.493633    0.014700
H203    H    0.399020    0.503000    0.325933
C305    C    0.396060    0.465600    0.040567
H204    H    0.223820    0.456233    0.035967
C306    C    0.202300    0.373033    0.031667
H205    H    0.374420    0.382333    0.026367
C307    C    0.265700    0.374100    0.071233
H206    H    0.282660    0.383900    0.094200
C308    C    0.332900    0.465167    0.078200
H207    H    0.315860    0.455133    0.100233
C309    C    0.316520    0.493233    0.054200
H208    H    0.288920    0.502500    0.059700
C310    C    0.341580    0.507667    0.021533
C311    C    0.275600    0.636900    0.318333
C312    C    0.324400    0.537933    0.327167
Ni27    Ni    0.298960    0.584653    0.613143
O105    O    0.248260    0.449873    0.464300
O106    O    0.350980    0.377693    0.456733
O107    O    0.387380    0.450743    0.499100
O108    O    0.213300    0.373267    0.491400
N53    N    0.325580    0.614300    0.565400
N54    N    0.272220    0.548700    0.571700
C313    C    0.317560    0.653100    0.504467
H209    H    0.300040    0.662067    0.481367
C314    C    0.358640    0.666000    0.511233
C315    C    0.383420    0.651533    0.545133
H210    H    0.212040    0.659267    0.550167
C316    C    0.281540    0.506367    0.514700
H211    H    0.299020    0.497000    0.492600
C317    C    0.296060    0.534400    0.540567
H212    H    0.323820    0.543767    0.535967
C318    C    0.302300    0.626967    0.531667
H213    H    0.274420    0.617667    0.526367
C319    C    0.365700    0.625900    0.571233
H214    H    0.382660    0.616100    0.594200
C320    C    0.232900    0.534833    0.578200
H215    H    0.215860    0.544867    0.600233
C321    C    0.216520    0.506767    0.554200
H216    H    0.388920    0.497500    0.559700
C322    C    0.241580    0.492333    0.521533
C323    C    0.375600    0.363100    0.485000
C324    C    0.224400    0.462067    0.493833
Ni28    Ni    0.398960    0.415347    0.446477
O109    O    0.348260    0.550127    0.630967
O110    O    0.250980    0.622307    0.623400
O111    O    0.287380    0.549257    0.665767
O112    O    0.313300    0.626733    0.658067
N55    N    0.225580    0.385700    0.398733
N56    N    0.372220    0.451300    0.405033
C325    C    0.217560    0.346900    0.337800
H217    H    0.200040    0.337933    0.648033
C326    C    0.258640    0.334000    0.344567
C327    C    0.283420    0.348467    0.378467
H218    H    0.312040    0.340733    0.383500
C328    C    0.381540    0.493633    0.348033
H219    H    0.399020    0.503000    0.659267
C329    C    0.396060    0.465600    0.373900
H220    H    0.223820    0.456233    0.369300
C330    C    0.202300    0.373033    0.365000
H221    H    0.374420    0.382333    0.359700
C331    C    0.265700    0.374100    0.404567
H222    H    0.282660    0.383900    0.427533
C332    C    0.332900    0.465167    0.411533
H223    H    0.315860    0.455133    0.433567
C333    C    0.316520    0.493233    0.387533
H224    H    0.288920    0.502500    0.393033
C334    C    0.341580    0.507667    0.354867
C335    C    0.275600    0.636900    0.651667
C336    C    0.324400    0.537933    0.660500
Ni29    Ni    0.298960    0.584653    0.946477
O113    O    0.248260    0.449873    0.797633
O114    O    0.350980    0.377693    0.790067
O115    O    0.387380    0.450743    0.832433
O116    O    0.213300    0.373267    0.824733
N57    N    0.325580    0.614300    0.898733
N58    N    0.272220    0.548700    0.905033
C337    C    0.317560    0.653100    0.837800
H225    H    0.300040    0.662067    0.814700
C338    C    0.358640    0.666000    0.844567
C339    C    0.383420    0.651533    0.878467
H226    H    0.212040    0.659267    0.883500
C340    C    0.281540    0.506367    0.848033
H227    H    0.299020    0.497000    0.825933
C341    C    0.296060    0.534400    0.873900
H228    H    0.323820    0.543767    0.869300
C342    C    0.302300    0.626967    0.865000
H229    H    0.274420    0.617667    0.859700
C343    C    0.365700    0.625900    0.904567
H230    H    0.382660    0.616100    0.927533
C344    C    0.232900    0.534833    0.911533
H231    H    0.215860    0.544867    0.933567
C345    C    0.216520    0.506767    0.887533
H232    H    0.388920    0.497500    0.893033
C346    C    0.241580    0.492333    0.854867
C347    C    0.375600    0.363100    0.818333
C348    C    0.224400    0.462067    0.827167
Ni30    Ni    0.398960    0.415347    0.779810
O117    O    0.348260    0.550127    0.964300
O118    O    0.250980    0.622307    0.956733
O119    O    0.287380    0.549257    0.999100
O120    O    0.313300    0.626733    0.991400
N59    N    0.225580    0.385700    0.732067
N60    N    0.372220    0.451300    0.738367
C349    C    0.217560    0.346900    0.671133
H233    H    0.200040    0.337933    0.981367
C350    C    0.258640    0.334000    0.677900
C351    C    0.283420    0.348467    0.711800
H234    H    0.312040    0.340733    0.716833
C352    C    0.381540    0.493633    0.681367
H235    H    0.399020    0.503000    0.992600
C353    C    0.396060    0.465600    0.707233
H236    H    0.223820    0.456233    0.702633
C354    C    0.202300    0.373033    0.698333
H237    H    0.374420    0.382333    0.693033
C355    C    0.265700    0.374100    0.737900
H238    H    0.282660    0.383900    0.760867
C356    C    0.332900    0.465167    0.744867
H239    H    0.315860    0.455133    0.766900
C357    C    0.316520    0.493233    0.720867
H240    H    0.288920    0.502500    0.726367
C358    C    0.341580    0.507667    0.688200
C359    C    0.275600    0.636900    0.985000
C360    C    0.324400    0.537933    0.993833
Ni31    Ni    0.298960    0.917987    0.279810
O121    O    0.248260    0.783207    0.130967
O122    O    0.350980    0.711027    0.123400
O123    O    0.387380    0.784077    0.165767
O124    O    0.213300    0.706600    0.158067
N61    N    0.325580    0.947633    0.232067
N62    N    0.272220    0.882033    0.238367
C361    C    0.317560    0.986433    0.171133
H241    H    0.300040    0.995400    0.148033
C362    C    0.358640    0.999333    0.177900
C363    C    0.383420    0.984867    0.211800
H242    H    0.212040    0.992600    0.216833
C364    C    0.281540    0.839700    0.181367
H243    H    0.299020    0.830333    0.159267
C365    C    0.296060    0.867733    0.207233
H244    H    0.323820    0.877100    0.202633
C366    C    0.302300    0.960300    0.198333
H245    H    0.274420    0.951000    0.193033
C367    C    0.365700    0.959233    0.237900
H246    H    0.382660    0.949433    0.260867
C368    C    0.232900    0.868167    0.244867
H247    H    0.215860    0.878200    0.266900
C369    C    0.216520    0.840100    0.220867
H248    H    0.388920    0.830833    0.226367
C370    C    0.241580    0.825667    0.188200
C371    C    0.375600    0.696433    0.151667
C372    C    0.224400    0.795400    0.160500
Ni32    Ni    0.398960    0.748680    0.113143
O125    O    0.348260    0.883460    0.297633
O126    O    0.250980    0.955640    0.290067
O127    O    0.287380    0.882590    0.332433
O128    O    0.313300    0.960067    0.324733
N63    N    0.225580    0.719033    0.065400
N64    N    0.372220    0.784633    0.071700
C373    C    0.217560    0.680233    0.004467
H249    H    0.200040    0.671267    0.314700
C374    C    0.258640    0.667333    0.011233
C375    C    0.283420    0.681800    0.045133
H250    H    0.312040    0.674067    0.050167
C376    C    0.381540    0.826967    0.014700
H251    H    0.399020    0.836333    0.325933
C377    C    0.396060    0.798933    0.040567
H252    H    0.223820    0.789567    0.035967
C378    C    0.202300    0.706367    0.031667
H253    H    0.374420    0.715667    0.026367
C379    C    0.265700    0.707433    0.071233
H254    H    0.282660    0.717233    0.094200
C380    C    0.332900    0.798500    0.078200
H255    H    0.315860    0.788467    0.100233
C381    C    0.316520    0.826567    0.054200
H256    H    0.288920    0.835833    0.059700
C382    C    0.341580    0.841000    0.021533
C383    C    0.275600    0.970233    0.318333
C384    C    0.324400    0.871267    0.327167
Ni33    Ni    0.298960    0.917987    0.613143
O129    O    0.248260    0.783207    0.464300
O130    O    0.350980    0.711027    0.456733
O131    O    0.387380    0.784077    0.499100
O132    O    0.213300    0.706600    0.491400
N65    N    0.325580    0.947633    0.565400
N66    N    0.272220    0.882033    0.571700
C385    C    0.317560    0.986433    0.504467
H257    H    0.300040    0.995400    0.481367
C386    C    0.358640    0.999333    0.511233
C387    C    0.383420    0.984867    0.545133
H258    H    0.212040    0.992600    0.550167
C388    C    0.281540    0.839700    0.514700
H259    H    0.299020    0.830333    0.492600
C389    C    0.296060    0.867733    0.540567
H260    H    0.323820    0.877100    0.535967
C390    C    0.302300    0.960300    0.531667
H261    H    0.274420    0.951000    0.526367
C391    C    0.365700    0.959233    0.571233
H262    H    0.382660    0.949433    0.594200
C392    C    0.232900    0.868167    0.578200
H263    H    0.215860    0.878200    0.600233
C393    C    0.216520    0.840100    0.554200
H264    H    0.388920    0.830833    0.559700
C394    C    0.241580    0.825667    0.521533
C395    C    0.375600    0.696433    0.485000
C396    C    0.224400    0.795400    0.493833
Ni34    Ni    0.398960    0.748680    0.446477
O133    O    0.348260    0.883460    0.630967
O134    O    0.250980    0.955640    0.623400
O135    O    0.287380    0.882590    0.665767
O136    O    0.313300    0.960067    0.658067
N67    N    0.225580    0.719033    0.398733
N68    N    0.372220    0.784633    0.405033
C397    C    0.217560    0.680233    0.337800
H265    H    0.200040    0.671267    0.648033
C398    C    0.258640    0.667333    0.344567
C399    C    0.283420    0.681800    0.378467
H266    H    0.312040    0.674067    0.383500
C400    C    0.381540    0.826967    0.348033
H267    H    0.399020    0.836333    0.659267
C401    C    0.396060    0.798933    0.373900
H268    H    0.223820    0.789567    0.369300
C402    C    0.202300    0.706367    0.365000
H269    H    0.374420    0.715667    0.359700
C403    C    0.265700    0.707433    0.404567
H270    H    0.282660    0.717233    0.427533
C404    C    0.332900    0.798500    0.411533
H271    H    0.315860    0.788467    0.433567
C405    C    0.316520    0.826567    0.387533
H272    H    0.288920    0.835833    0.393033
C406    C    0.341580    0.841000    0.354867
C407    C    0.275600    0.970233    0.651667
C408    C    0.324400    0.871267    0.660500
Ni35    Ni    0.298960    0.917987    0.946477
O137    O    0.248260    0.783207    0.797633
O138    O    0.350980    0.711027    0.790067
O139    O    0.387380    0.784077    0.832433
O140    O    0.213300    0.706600    0.824733
N69    N    0.325580    0.947633    0.898733
N70    N    0.272220    0.882033    0.905033
C409    C    0.317560    0.986433    0.837800
H273    H    0.300040    0.995400    0.814700
C410    C    0.358640    0.999333    0.844567
C411    C    0.383420    0.984867    0.878467
H274    H    0.212040    0.992600    0.883500
C412    C    0.281540    0.839700    0.848033
H275    H    0.299020    0.830333    0.825933
C413    C    0.296060    0.867733    0.873900
H276    H    0.323820    0.877100    0.869300
C414    C    0.302300    0.960300    0.865000
H277    H    0.274420    0.951000    0.859700
C415    C    0.365700    0.959233    0.904567
H278    H    0.382660    0.949433    0.927533
C416    C    0.232900    0.868167    0.911533
H279    H    0.215860    0.878200    0.933567
C417    C    0.216520    0.840100    0.887533
H280    H    0.388920    0.830833    0.893033
C418    C    0.241580    0.825667    0.854867
C419    C    0.375600    0.696433    0.818333
C420    C    0.224400    0.795400    0.827167
Ni36    Ni    0.398960    0.748680    0.779810
O141    O    0.348260    0.883460    0.964300
O142    O    0.250980    0.955640    0.956733
O143    O    0.287380    0.882590    0.999100
O144    O    0.313300    0.960067    0.991400
N71    N    0.225580    0.719033    0.732067
N72    N    0.372220    0.784633    0.738367
C421    C    0.217560    0.680233    0.671133
H281    H    0.200040    0.671267    0.981367
C422    C    0.258640    0.667333    0.677900
C423    C    0.283420    0.681800    0.711800
H282    H    0.312040    0.674067    0.716833
C424    C    0.381540    0.826967    0.681367
H283    H    0.399020    0.836333    0.992600
C425    C    0.396060    0.798933    0.707233
H284    H    0.223820    0.789567    0.702633
C426    C    0.202300    0.706367    0.698333
H285    H    0.374420    0.715667    0.693033
C427    C    0.265700    0.707433    0.737900
H286    H    0.282660    0.717233    0.760867
C428    C    0.332900    0.798500    0.744867
H287    H    0.315860    0.788467    0.766900
C429    C    0.316520    0.826567    0.720867
H288    H    0.288920    0.835833    0.726367
C430    C    0.341580    0.841000    0.688200
C431    C    0.275600    0.970233    0.985000
C432    C    0.324400    0.871267    0.993833
Ni37    Ni    0.498960    0.251320    0.279810
O145    O    0.448260    0.116540    0.130967
O146    O    0.550980    0.044360    0.123400
O147    O    0.587380    0.117410    0.165767
O148    O    0.413300    0.039933    0.158067
N73    N    0.525580    0.280967    0.232067
N74    N    0.472220    0.215367    0.238367
C433    C    0.517560    0.319767    0.171133
H289    H    0.500040    0.328733    0.148033
C434    C    0.558640    0.332667    0.177900
C435    C    0.583420    0.318200    0.211800
H290    H    0.412040    0.325933    0.216833
C436    C    0.481540    0.173033    0.181367
H291    H    0.499020    0.163667    0.159267
C437    C    0.496060    0.201067    0.207233
H292    H    0.523820    0.210433    0.202633
C438    C    0.502300    0.293633    0.198333
H293    H    0.474420    0.284333    0.193033
C439    C    0.565700    0.292567    0.237900
H294    H    0.582660    0.282767    0.260867
C440    C    0.432900    0.201500    0.244867
H295    H    0.415860    0.211533    0.266900
C441    C    0.416520    0.173433    0.220867
H296    H    0.588920    0.164167    0.226367
C442    C    0.441580    0.159000    0.188200
C443    C    0.575600    0.029767    0.151667
C444    C    0.424400    0.128733    0.160500
Ni38    Ni    0.598960    0.082013    0.113143
O149    O    0.548260    0.216793    0.297633
O150    O    0.450980    0.288973    0.290067
O151    O    0.487380    0.215923    0.332433
O152    O    0.513300    0.293400    0.324733
N75    N    0.425580    0.052367    0.065400
N76    N    0.572220    0.117967    0.071700
C445    C    0.417560    0.013567    0.004467
H297    H    0.400040    0.004600    0.314700
C446    C    0.458640    0.000667    0.011233
C447    C    0.483420    0.015133    0.045133
H298    H    0.512040    0.007400    0.050167
C448    C    0.581540    0.160300    0.014700
H299    H    0.599020    0.169667    0.325933
C449    C    0.596060    0.132267    0.040567
H300    H    0.423820    0.122900    0.035967
C450    C    0.402300    0.039700    0.031667
H301    H    0.574420    0.049000    0.026367
C451    C    0.465700    0.040767    0.071233
H302    H    0.482660    0.050567    0.094200
C452    C    0.532900    0.131833    0.078200
H303    H    0.515860    0.121800    0.100233
C453    C    0.516520    0.159900    0.054200
H304    H    0.488920    0.169167    0.059700
C454    C    0.541580    0.174333    0.021533
C455    C    0.475600    0.303567    0.318333
C456    C    0.524400    0.204600    0.327167
Ni39    Ni    0.498960    0.251320    0.613143
O153    O    0.448260    0.116540    0.464300
O154    O    0.550980    0.044360    0.456733
O155    O    0.587380    0.117410    0.499100
O156    O    0.413300    0.039933    0.491400
N77    N    0.525580    0.280967    0.565400
N78    N    0.472220    0.215367    0.571700
C457    C    0.517560    0.319767    0.504467
H305    H    0.500040    0.328733    0.481367
C458    C    0.558640    0.332667    0.511233
C459    C    0.583420    0.318200    0.545133
H306    H    0.412040    0.325933    0.550167
C460    C    0.481540    0.173033    0.514700
H307    H    0.499020    0.163667    0.492600
C461    C    0.496060    0.201067    0.540567
H308    H    0.523820    0.210433    0.535967
C462    C    0.502300    0.293633    0.531667
H309    H    0.474420    0.284333    0.526367
C463    C    0.565700    0.292567    0.571233
H310    H    0.582660    0.282767    0.594200
C464    C    0.432900    0.201500    0.578200
H311    H    0.415860    0.211533    0.600233
C465    C    0.416520    0.173433    0.554200
H312    H    0.588920    0.164167    0.559700
C466    C    0.441580    0.159000    0.521533
C467    C    0.575600    0.029767    0.485000
C468    C    0.424400    0.128733    0.493833
Ni40    Ni    0.598960    0.082013    0.446477
O157    O    0.548260    0.216793    0.630967
O158    O    0.450980    0.288973    0.623400
O159    O    0.487380    0.215923    0.665767
O160    O    0.513300    0.293400    0.658067
N79    N    0.425580    0.052367    0.398733
N80    N    0.572220    0.117967    0.405033
C469    C    0.417560    0.013567    0.337800
H313    H    0.400040    0.004600    0.648033
C470    C    0.458640    0.000667    0.344567
C471    C    0.483420    0.015133    0.378467
H314    H    0.512040    0.007400    0.383500
C472    C    0.581540    0.160300    0.348033
H315    H    0.599020    0.169667    0.659267
C473    C    0.596060    0.132267    0.373900
H316    H    0.423820    0.122900    0.369300
C474    C    0.402300    0.039700    0.365000
H317    H    0.574420    0.049000    0.359700
C475    C    0.465700    0.040767    0.404567
H318    H    0.482660    0.050567    0.427533
C476    C    0.532900    0.131833    0.411533
H319    H    0.515860    0.121800    0.433567
C477    C    0.516520    0.159900    0.387533
H320    H    0.488920    0.169167    0.393033
C478    C    0.541580    0.174333    0.354867
C479    C    0.475600    0.303567    0.651667
C480    C    0.524400    0.204600    0.660500
Ni41    Ni    0.498960    0.251320    0.946477
O161    O    0.448260    0.116540    0.797633
O162    O    0.550980    0.044360    0.790067
O163    O    0.587380    0.117410    0.832433
O164    O    0.413300    0.039933    0.824733
N81    N    0.525580    0.280967    0.898733
N82    N    0.472220    0.215367    0.905033
C481    C    0.517560    0.319767    0.837800
H321    H    0.500040    0.328733    0.814700
C482    C    0.558640    0.332667    0.844567
C483    C    0.583420    0.318200    0.878467
H322    H    0.412040    0.325933    0.883500
C484    C    0.481540    0.173033    0.848033
H323    H    0.499020    0.163667    0.825933
C485    C    0.496060    0.201067    0.873900
H324    H    0.523820    0.210433    0.869300
C486    C    0.502300    0.293633    0.865000
H325    H    0.474420    0.284333    0.859700
C487    C    0.565700    0.292567    0.904567
H326    H    0.582660    0.282767    0.927533
C488    C    0.432900    0.201500    0.911533
H327    H    0.415860    0.211533    0.933567
C489    C    0.416520    0.173433    0.887533
H328    H    0.588920    0.164167    0.893033
C490    C    0.441580    0.159000    0.854867
C491    C    0.575600    0.029767    0.818333
C492    C    0.424400    0.128733    0.827167
Ni42    Ni    0.598960    0.082013    0.779810
O165    O    0.548260    0.216793    0.964300
O166    O    0.450980    0.288973    0.956733
O167    O    0.487380    0.215923    0.999100
O168    O    0.513300    0.293400    0.991400
N83    N    0.425580    0.052367    0.732067
N84    N    0.572220    0.117967    0.738367
C493    C    0.417560    0.013567    0.671133
H329    H    0.400040    0.004600    0.981367
C494    C    0.458640    0.000667    0.677900
C495    C    0.483420    0.015133    0.711800
H330    H    0.512040    0.007400    0.716833
C496    C    0.581540    0.160300    0.681367
H331    H    0.599020    0.169667    0.992600
C497    C    0.596060    0.132267    0.707233
H332    H    0.423820    0.122900    0.702633
C498    C    0.402300    0.039700    0.698333
H333    H    0.574420    0.049000    0.693033
C499    C    0.465700    0.040767    0.737900
H334    H    0.482660    0.050567    0.760867
C500    C    0.532900    0.131833    0.744867
H335    H    0.515860    0.121800    0.766900
C501    C    0.516520    0.159900    0.720867
H336    H    0.488920    0.169167    0.726367
C502    C    0.541580    0.174333    0.688200
C503    C    0.475600    0.303567    0.985000
C504    C    0.524400    0.204600    0.993833
Ni43    Ni    0.498960    0.584653    0.279810
O169    O    0.448260    0.449873    0.130967
O170    O    0.550980    0.377693    0.123400
O171    O    0.587380    0.450743    0.165767
O172    O    0.413300    0.373267    0.158067
N85    N    0.525580    0.614300    0.232067
N86    N    0.472220    0.548700    0.238367
C505    C    0.517560    0.653100    0.171133
H337    H    0.500040    0.662067    0.148033
C506    C    0.558640    0.666000    0.177900
C507    C    0.583420    0.651533    0.211800
H338    H    0.412040    0.659267    0.216833
C508    C    0.481540    0.506367    0.181367
H339    H    0.499020    0.497000    0.159267
C509    C    0.496060    0.534400    0.207233
H340    H    0.523820    0.543767    0.202633
C510    C    0.502300    0.626967    0.198333
H341    H    0.474420    0.617667    0.193033
C511    C    0.565700    0.625900    0.237900
H342    H    0.582660    0.616100    0.260867
C512    C    0.432900    0.534833    0.244867
H343    H    0.415860    0.544867    0.266900
C513    C    0.416520    0.506767    0.220867
H344    H    0.588920    0.497500    0.226367
C514    C    0.441580    0.492333    0.188200
C515    C    0.575600    0.363100    0.151667
C516    C    0.424400    0.462067    0.160500
Ni44    Ni    0.598960    0.415347    0.113143
O173    O    0.548260    0.550127    0.297633
O174    O    0.450980    0.622307    0.290067
O175    O    0.487380    0.549257    0.332433
O176    O    0.513300    0.626733    0.324733
N87    N    0.425580    0.385700    0.065400
N88    N    0.572220    0.451300    0.071700
C517    C    0.417560    0.346900    0.004467
H345    H    0.400040    0.337933    0.314700
C518    C    0.458640    0.334000    0.011233
C519    C    0.483420    0.348467    0.045133
H346    H    0.512040    0.340733    0.050167
C520    C    0.581540    0.493633    0.014700
H347    H    0.599020    0.503000    0.325933
C521    C    0.596060    0.465600    0.040567
H348    H    0.423820    0.456233    0.035967
C522    C    0.402300    0.373033    0.031667
H349    H    0.574420    0.382333    0.026367
C523    C    0.465700    0.374100    0.071233
H350    H    0.482660    0.383900    0.094200
C524    C    0.532900    0.465167    0.078200
H351    H    0.515860    0.455133    0.100233
C525    C    0.516520    0.493233    0.054200
H352    H    0.488920    0.502500    0.059700
C526    C    0.541580    0.507667    0.021533
C527    C    0.475600    0.636900    0.318333
C528    C    0.524400    0.537933    0.327167
Ni45    Ni    0.498960    0.584653    0.613143
O177    O    0.448260    0.449873    0.464300
O178    O    0.550980    0.377693    0.456733
O179    O    0.587380    0.450743    0.499100
O180    O    0.413300    0.373267    0.491400
N89    N    0.525580    0.614300    0.565400
N90    N    0.472220    0.548700    0.571700
C529    C    0.517560    0.653100    0.504467
H353    H    0.500040    0.662067    0.481367
C530    C    0.558640    0.666000    0.511233
C531    C    0.583420    0.651533    0.545133
H354    H    0.412040    0.659267    0.550167
C532    C    0.481540    0.506367    0.514700
H355    H    0.499020    0.497000    0.492600
C533    C    0.496060    0.534400    0.540567
H356    H    0.523820    0.543767    0.535967
C534    C    0.502300    0.626967    0.531667
H357    H    0.474420    0.617667    0.526367
C535    C    0.565700    0.625900    0.571233
H358    H    0.582660    0.616100    0.594200
C536    C    0.432900    0.534833    0.578200
H359    H    0.415860    0.544867    0.600233
C537    C    0.416520    0.506767    0.554200
H360    H    0.588920    0.497500    0.559700
C538    C    0.441580    0.492333    0.521533
C539    C    0.575600    0.363100    0.485000
C540    C    0.424400    0.462067    0.493833
Ni46    Ni    0.598960    0.415347    0.446477
O181    O    0.548260    0.550127    0.630967
O182    O    0.450980    0.622307    0.623400
O183    O    0.487380    0.549257    0.665767
O184    O    0.513300    0.626733    0.658067
N91    N    0.425580    0.385700    0.398733
N92    N    0.572220    0.451300    0.405033
C541    C    0.417560    0.346900    0.337800
H361    H    0.400040    0.337933    0.648033
C542    C    0.458640    0.334000    0.344567
C543    C    0.483420    0.348467    0.378467
H362    H    0.512040    0.340733    0.383500
C544    C    0.581540    0.493633    0.348033
H363    H    0.599020    0.503000    0.659267
C545    C    0.596060    0.465600    0.373900
H364    H    0.423820    0.456233    0.369300
C546    C    0.402300    0.373033    0.365000
H365    H    0.574420    0.382333    0.359700
C547    C    0.465700    0.374100    0.404567
H366    H    0.482660    0.383900    0.427533
C548    C    0.532900    0.465167    0.411533
H367    H    0.515860    0.455133    0.433567
C549    C    0.516520    0.493233    0.387533
H368    H    0.488920    0.502500    0.393033
C550    C    0.541580    0.507667    0.354867
C551    C    0.475600    0.636900    0.651667
C552    C    0.524400    0.537933    0.660500
Ni47    Ni    0.498960    0.584653    0.946477
O185    O    0.448260    0.449873    0.797633
O186    O    0.550980    0.377693    0.790067
O187    O    0.587380    0.450743    0.832433
O188    O    0.413300    0.373267    0.824733
N93    N    0.525580    0.614300    0.898733
N94    N    0.472220    0.548700    0.905033
C553    C    0.517560    0.653100    0.837800
H369    H    0.500040    0.662067    0.814700
C554    C    0.558640    0.666000    0.844567
C555    C    0.583420    0.651533    0.878467
H370    H    0.412040    0.659267    0.883500
C556    C    0.481540    0.506367    0.848033
H371    H    0.499020    0.497000    0.825933
C557    C    0.496060    0.534400    0.873900
H372    H    0.523820    0.543767    0.869300
C558    C    0.502300    0.626967    0.865000
H373    H    0.474420    0.617667    0.859700
C559    C    0.565700    0.625900    0.904567
H374    H    0.582660    0.616100    0.927533
C560    C    0.432900    0.534833    0.911533
H375    H    0.415860    0.544867    0.933567
C561    C    0.416520    0.506767    0.887533
H376    H    0.588920    0.497500    0.893033
C562    C    0.441580    0.492333    0.854867
C563    C    0.575600    0.363100    0.818333
C564    C    0.424400    0.462067    0.827167
Ni48    Ni    0.598960    0.415347    0.779810
O189    O    0.548260    0.550127    0.964300
O190    O    0.450980    0.622307    0.956733
O191    O    0.487380    0.549257    0.999100
O192    O    0.513300    0.626733    0.991400
N95    N    0.425580    0.385700    0.732067
N96    N    0.572220    0.451300    0.738367
C565    C    0.417560    0.346900    0.671133
H377    H    0.400040    0.337933    0.981367
C566    C    0.458640    0.334000    0.677900
C567    C    0.483420    0.348467    0.711800
H378    H    0.512040    0.340733    0.716833
C568    C    0.581540    0.493633    0.681367
H379    H    0.599020    0.503000    0.992600
C569    C    0.596060    0.465600    0.707233
H380    H    0.423820    0.456233    0.702633
C570    C    0.402300    0.373033    0.698333
H381    H    0.574420    0.382333    0.693033
C571    C    0.465700    0.374100    0.737900
H382    H    0.482660    0.383900    0.760867
C572    C    0.532900    0.465167    0.744867
H383    H    0.515860    0.455133    0.766900
C573    C    0.516520    0.493233    0.720867
H384    H    0.488920    0.502500    0.726367
C574    C    0.541580    0.507667    0.688200
C575    C    0.475600    0.636900    0.985000
C576    C    0.524400    0.537933    0.993833
Ni49    Ni    0.498960    0.917987    0.279810
O193    O    0.448260    0.783207    0.130967
O194    O    0.550980    0.711027    0.123400
O195    O    0.587380    0.784077    0.165767
O196    O    0.413300    0.706600    0.158067
N97    N    0.525580    0.947633    0.232067
N98    N    0.472220    0.882033    0.238367
C577    C    0.517560    0.986433    0.171133
H385    H    0.500040    0.995400    0.148033
C578    C    0.558640    0.999333    0.177900
C579    C    0.583420    0.984867    0.211800
H386    H    0.412040    0.992600    0.216833
C580    C    0.481540    0.839700    0.181367
H387    H    0.499020    0.830333    0.159267
C581    C    0.496060    0.867733    0.207233
H388    H    0.523820    0.877100    0.202633
C582    C    0.502300    0.960300    0.198333
H389    H    0.474420    0.951000    0.193033
C583    C    0.565700    0.959233    0.237900
H390    H    0.582660    0.949433    0.260867
C584    C    0.432900    0.868167    0.244867
H391    H    0.415860    0.878200    0.266900
C585    C    0.416520    0.840100    0.220867
H392    H    0.588920    0.830833    0.226367
C586    C    0.441580    0.825667    0.188200
C587    C    0.575600    0.696433    0.151667
C588    C    0.424400    0.795400    0.160500
Ni50    Ni    0.598960    0.748680    0.113143
O197    O    0.548260    0.883460    0.297633
O198    O    0.450980    0.955640    0.290067
O199    O    0.487380    0.882590    0.332433
O200    O    0.513300    0.960067    0.324733
N99    N    0.425580    0.719033    0.065400
N100    N    0.572220    0.784633    0.071700
C589    C    0.417560    0.680233    0.004467
H393    H    0.400040    0.671267    0.314700
C590    C    0.458640    0.667333    0.011233
C591    C    0.483420    0.681800    0.045133
H394    H    0.512040    0.674067    0.050167
C592    C    0.581540    0.826967    0.014700
H395    H    0.599020    0.836333    0.325933
C593    C    0.596060    0.798933    0.040567
H396    H    0.423820    0.789567    0.035967
C594    C    0.402300    0.706367    0.031667
H397    H    0.574420    0.715667    0.026367
C595    C    0.465700    0.707433    0.071233
H398    H    0.482660    0.717233    0.094200
C596    C    0.532900    0.798500    0.078200
H399    H    0.515860    0.788467    0.100233
C597    C    0.516520    0.826567    0.054200
H400    H    0.488920    0.835833    0.059700
C598    C    0.541580    0.841000    0.021533
C599    C    0.475600    0.970233    0.318333
C600    C    0.524400    0.871267    0.327167
Ni51    Ni    0.498960    0.917987    0.613143
O201    O    0.448260    0.783207    0.464300
O202    O    0.550980    0.711027    0.456733
O203    O    0.587380    0.784077    0.499100
O204    O    0.413300    0.706600    0.491400
N101    N    0.525580    0.947633    0.565400
N102    N    0.472220    0.882033    0.571700
C601    C    0.517560    0.986433    0.504467
H401    H    0.500040    0.995400    0.481367
C602    C    0.558640    0.999333    0.511233
C603    C    0.583420    0.984867    0.545133
H402    H    0.412040    0.992600    0.550167
C604    C    0.481540    0.839700    0.514700
H403    H    0.499020    0.830333    0.492600
C605    C    0.496060    0.867733    0.540567
H404    H    0.523820    0.877100    0.535967
C606    C    0.502300    0.960300    0.531667
H405    H    0.474420    0.951000    0.526367
C607    C    0.565700    0.959233    0.571233
H406    H    0.582660    0.949433    0.594200
C608    C    0.432900    0.868167    0.578200
H407    H    0.415860    0.878200    0.600233
C609    C    0.416520    0.840100    0.554200
H408    H    0.588920    0.830833    0.559700
C610    C    0.441580    0.825667    0.521533
C611    C    0.575600    0.696433    0.485000
C612    C    0.424400    0.795400    0.493833
Ni52    Ni    0.598960    0.748680    0.446477
O205    O    0.548260    0.883460    0.630967
O206    O    0.450980    0.955640    0.623400
O207    O    0.487380    0.882590    0.665767
O208    O    0.513300    0.960067    0.658067
N103    N    0.425580    0.719033    0.398733
N104    N    0.572220    0.784633    0.405033
C613    C    0.417560    0.680233    0.337800
H409    H    0.400040    0.671267    0.648033
C614    C    0.458640    0.667333    0.344567
C615    C    0.483420    0.681800    0.378467
H410    H    0.512040    0.674067    0.383500
C616    C    0.581540    0.826967    0.348033
H411    H    0.599020    0.836333    0.659267
C617    C    0.596060    0.798933    0.373900
H412    H    0.423820    0.789567    0.369300
C618    C    0.402300    0.706367    0.365000
H413    H    0.574420    0.715667    0.359700
C619    C    0.465700    0.707433    0.404567
H414    H    0.482660    0.717233    0.427533
C620    C    0.532900    0.798500    0.411533
H415    H    0.515860    0.788467    0.433567
C621    C    0.516520    0.826567    0.387533
H416    H    0.488920    0.835833    0.393033
C622    C    0.541580    0.841000    0.354867
C623    C    0.475600    0.970233    0.651667
C624    C    0.524400    0.871267    0.660500
Ni53    Ni    0.498960    0.917987    0.946477
O209    O    0.448260    0.783207    0.797633
O210    O    0.550980    0.711027    0.790067
O211    O    0.587380    0.784077    0.832433
O212    O    0.413300    0.706600    0.824733
N105    N    0.525580    0.947633    0.898733
N106    N    0.472220    0.882033    0.905033
C625    C    0.517560    0.986433    0.837800
H417    H    0.500040    0.995400    0.814700
C626    C    0.558640    0.999333    0.844567
C627    C    0.583420    0.984867    0.878467
H418    H    0.412040    0.992600    0.883500
C628    C    0.481540    0.839700    0.848033
H419    H    0.499020    0.830333    0.825933
C629    C    0.496060    0.867733    0.873900
H420    H    0.523820    0.877100    0.869300
C630    C    0.502300    0.960300    0.865000
H421    H    0.474420    0.951000    0.859700
C631    C    0.565700    0.959233    0.904567
H422    H    0.582660    0.949433    0.927533
C632    C    0.432900    0.868167    0.911533
H423    H    0.415860    0.878200    0.933567
C633    C    0.416520    0.840100    0.887533
H424    H    0.588920    0.830833    0.893033
C634    C    0.441580    0.825667    0.854867
C635    C    0.575600    0.696433    0.818333
C636    C    0.424400    0.795400    0.827167
Ni54    Ni    0.598960    0.748680    0.779810
O213    O    0.548260    0.883460    0.964300
O214    O    0.450980    0.955640    0.956733
O215    O    0.487380    0.882590    0.999100
O216    O    0.513300    0.960067    0.991400
N107    N    0.425580    0.719033    0.732067
N108    N    0.572220    0.784633    0.738367
C637    C    0.417560    0.680233    0.671133
H425    H    0.400040    0.671267    0.981367
C638    C    0.458640    0.667333    0.677900
C639    C    0.483420    0.681800    0.711800
H426    H    0.512040    0.674067    0.716833
C640    C    0.581540    0.826967    0.681367
H427    H    0.599020    0.836333    0.992600
C641    C    0.596060    0.798933    0.707233
H428    H    0.423820    0.789567    0.702633
C642    C    0.402300    0.706367    0.698333
H429    H    0.574420    0.715667    0.693033
C643    C    0.465700    0.707433    0.737900
H430    H    0.482660    0.717233    0.760867
C644    C    0.532900    0.798500    0.744867
H431    H    0.515860    0.788467    0.766900
C645    C    0.516520    0.826567    0.720867
H432    H    0.488920    0.835833    0.726367
C646    C    0.541580    0.841000    0.688200
C647    C    0.475600    0.970233    0.985000
C648    C    0.524400    0.871267    0.993833
Ni55    Ni    0.698960    0.251320    0.279810
O217    O    0.648260    0.116540    0.130967
O218    O    0.750980    0.044360    0.123400
O219    O    0.787380    0.117410    0.165767
O220    O    0.613300    0.039933    0.158067
N109    N    0.725580    0.280967    0.232067
N110    N    0.672220    0.215367    0.238367
C649    C    0.717560    0.319767    0.171133
H433    H    0.700040    0.328733    0.148033
C650    C    0.758640    0.332667    0.177900
C651    C    0.783420    0.318200    0.211800
H434    H    0.612040    0.325933    0.216833
C652    C    0.681540    0.173033    0.181367
H435    H    0.699020    0.163667    0.159267
C653    C    0.696060    0.201067    0.207233
H436    H    0.723820    0.210433    0.202633
C654    C    0.702300    0.293633    0.198333
H437    H    0.674420    0.284333    0.193033
C655    C    0.765700    0.292567    0.237900
H438    H    0.782660    0.282767    0.260867
C656    C    0.632900    0.201500    0.244867
H439    H    0.615860    0.211533    0.266900
C657    C    0.616520    0.173433    0.220867
H440    H    0.788920    0.164167    0.226367
C658    C    0.641580    0.159000    0.188200
C659    C    0.775600    0.029767    0.151667
C660    C    0.624400    0.128733    0.160500
Ni56    Ni    0.798960    0.082013    0.113143
O221    O    0.748260    0.216793    0.297633
O222    O    0.650980    0.288973    0.290067
O223    O    0.687380    0.215923    0.332433
O224    O    0.713300    0.293400    0.324733
N111    N    0.625580    0.052367    0.065400
N112    N    0.772220    0.117967    0.071700
C661    C    0.617560    0.013567    0.004467
H441    H    0.600040    0.004600    0.314700
C662    C    0.658640    0.000667    0.011233
C663    C    0.683420    0.015133    0.045133
H442    H    0.712040    0.007400    0.050167
C664    C    0.781540    0.160300    0.014700
H443    H    0.799020    0.169667    0.325933
C665    C    0.796060    0.132267    0.040567
H444    H    0.623820    0.122900    0.035967
C666    C    0.602300    0.039700    0.031667
H445    H    0.774420    0.049000    0.026367
C667    C    0.665700    0.040767    0.071233
H446    H    0.682660    0.050567    0.094200
C668    C    0.732900    0.131833    0.078200
H447    H    0.715860    0.121800    0.100233
C669    C    0.716520    0.159900    0.054200
H448    H    0.688920    0.169167    0.059700
C670    C    0.741580    0.174333    0.021533
C671    C    0.675600    0.303567    0.318333
C672    C    0.724400    0.204600    0.327167
Ni57    Ni    0.698960    0.251320    0.613143
O225    O    0.648260    0.116540    0.464300
O226    O    0.750980    0.044360    0.456733
O227    O    0.787380    0.117410    0.499100
O228    O    0.613300    0.039933    0.491400
N113    N    0.725580    0.280967    0.565400
N114    N    0.672220    0.215367    0.571700
C673    C    0.717560    0.319767    0.504467
H449    H    0.700040    0.328733    0.481367
C674    C    0.758640    0.332667    0.511233
C675    C    0.783420    0.318200    0.545133
H450    H    0.612040    0.325933    0.550167
C676    C    0.681540    0.173033    0.514700
H451    H    0.699020    0.163667    0.492600
C677    C    0.696060    0.201067    0.540567
H452    H    0.723820    0.210433    0.535967
C678    C    0.702300    0.293633    0.531667
H453    H    0.674420    0.284333    0.526367
C679    C    0.765700    0.292567    0.571233
H454    H    0.782660    0.282767    0.594200
C680    C    0.632900    0.201500    0.578200
H455    H    0.615860    0.211533    0.600233
C681    C    0.616520    0.173433    0.554200
H456    H    0.788920    0.164167    0.559700
C682    C    0.641580    0.159000    0.521533
C683    C    0.775600    0.029767    0.485000
C684    C    0.624400    0.128733    0.493833
Ni58    Ni    0.798960    0.082013    0.446477
O229    O    0.748260    0.216793    0.630967
O230    O    0.650980    0.288973    0.623400
O231    O    0.687380    0.215923    0.665767
O232    O    0.713300    0.293400    0.658067
N115    N    0.625580    0.052367    0.398733
N116    N    0.772220    0.117967    0.405033
C685    C    0.617560    0.013567    0.337800
H457    H    0.600040    0.004600    0.648033
C686    C    0.658640    0.000667    0.344567
C687    C    0.683420    0.015133    0.378467
H458    H    0.712040    0.007400    0.383500
C688    C    0.781540    0.160300    0.348033
H459    H    0.799020    0.169667    0.659267
C689    C    0.796060    0.132267    0.373900
H460    H    0.623820    0.122900    0.369300
C690    C    0.602300    0.039700    0.365000
H461    H    0.774420    0.049000    0.359700
C691    C    0.665700    0.040767    0.404567
H462    H    0.682660    0.050567    0.427533
C692    C    0.732900    0.131833    0.411533
H463    H    0.715860    0.121800    0.433567
C693    C    0.716520    0.159900    0.387533
H464    H    0.688920    0.169167    0.393033
C694    C    0.741580    0.174333    0.354867
C695    C    0.675600    0.303567    0.651667
C696    C    0.724400    0.204600    0.660500
Ni59    Ni    0.698960    0.251320    0.946477
O233    O    0.648260    0.116540    0.797633
O234    O    0.750980    0.044360    0.790067
O235    O    0.787380    0.117410    0.832433
O236    O    0.613300    0.039933    0.824733
N117    N    0.725580    0.280967    0.898733
N118    N    0.672220    0.215367    0.905033
C697    C    0.717560    0.319767    0.837800
H465    H    0.700040    0.328733    0.814700
C698    C    0.758640    0.332667    0.844567
C699    C    0.783420    0.318200    0.878467
H466    H    0.612040    0.325933    0.883500
C700    C    0.681540    0.173033    0.848033
H467    H    0.699020    0.163667    0.825933
C701    C    0.696060    0.201067    0.873900
H468    H    0.723820    0.210433    0.869300
C702    C    0.702300    0.293633    0.865000
H469    H    0.674420    0.284333    0.859700
C703    C    0.765700    0.292567    0.904567
H470    H    0.782660    0.282767    0.927533
C704    C    0.632900    0.201500    0.911533
H471    H    0.615860    0.211533    0.933567
C705    C    0.616520    0.173433    0.887533
H472    H    0.788920    0.164167    0.893033
C706    C    0.641580    0.159000    0.854867
C707    C    0.775600    0.029767    0.818333
C708    C    0.624400    0.128733    0.827167
Ni60    Ni    0.798960    0.082013    0.779810
O237    O    0.748260    0.216793    0.964300
O238    O    0.650980    0.288973    0.956733
O239    O    0.687380    0.215923    0.999100
O240    O    0.713300    0.293400    0.991400
N119    N    0.625580    0.052367    0.732067
N120    N    0.772220    0.117967    0.738367
C709    C    0.617560    0.013567    0.671133
H473    H    0.600040    0.004600    0.981367
C710    C    0.658640    0.000667    0.677900
C711    C    0.683420    0.015133    0.711800
H474    H    0.712040    0.007400    0.716833
C712    C    0.781540    0.160300    0.681367
H475    H    0.799020    0.169667    0.992600
C713    C    0.796060    0.132267    0.707233
H476    H    0.623820    0.122900    0.702633
C714    C    0.602300    0.039700    0.698333
H477    H    0.774420    0.049000    0.693033
C715    C    0.665700    0.040767    0.737900
H478    H    0.682660    0.050567    0.760867
C716    C    0.732900    0.131833    0.744867
H479    H    0.715860    0.121800    0.766900
C717    C    0.716520    0.159900    0.720867
H480    H    0.688920    0.169167    0.726367
C718    C    0.741580    0.174333    0.688200
C719    C    0.675600    0.303567    0.985000
C720    C    0.724400    0.204600    0.993833
Ni61    Ni    0.698960    0.584653    0.279810
O241    O    0.648260    0.449873    0.130967
O242    O    0.750980    0.377693    0.123400
O243    O    0.787380    0.450743    0.165767
O244    O    0.613300    0.373267    0.158067
N121    N    0.725580    0.614300    0.232067
N122    N    0.672220    0.548700    0.238367
C721    C    0.717560    0.653100    0.171133
H481    H    0.700040    0.662067    0.148033
C722    C    0.758640    0.666000    0.177900
C723    C    0.783420    0.651533    0.211800
H482    H    0.612040    0.659267    0.216833
C724    C    0.681540    0.506367    0.181367
H483    H    0.699020    0.497000    0.159267
C725    C    0.696060    0.534400    0.207233
H484    H    0.723820    0.543767    0.202633
C726    C    0.702300    0.626967    0.198333
H485    H    0.674420    0.617667    0.193033
C727    C    0.765700    0.625900    0.237900
H486    H    0.782660    0.616100    0.260867
C728    C    0.632900    0.534833    0.244867
H487    H    0.615860    0.544867    0.266900
C729    C    0.616520    0.506767    0.220867
H488    H    0.788920    0.497500    0.226367
C730    C    0.641580    0.492333    0.188200
C731    C    0.775600    0.363100    0.151667
C732    C    0.624400    0.462067    0.160500
Ni62    Ni    0.798960    0.415347    0.113143
O245    O    0.748260    0.550127    0.297633
O246    O    0.650980    0.622307    0.290067
O247    O    0.687380    0.549257    0.332433
O248    O    0.713300    0.626733    0.324733
N123    N    0.625580    0.385700    0.065400
N124    N    0.772220    0.451300    0.071700
C733    C    0.617560    0.346900    0.004467
H489    H    0.600040    0.337933    0.314700
C734    C    0.658640    0.334000    0.011233
C735    C    0.683420    0.348467    0.045133
H490    H    0.712040    0.340733    0.050167
C736    C    0.781540    0.493633    0.014700
H491    H    0.799020    0.503000    0.325933
C737    C    0.796060    0.465600    0.040567
H492    H    0.623820    0.456233    0.035967
C738    C    0.602300    0.373033    0.031667
H493    H    0.774420    0.382333    0.026367
C739    C    0.665700    0.374100    0.071233
H494    H    0.682660    0.383900    0.094200
C740    C    0.732900    0.465167    0.078200
H495    H    0.715860    0.455133    0.100233
C741    C    0.716520    0.493233    0.054200
H496    H    0.688920    0.502500    0.059700
C742    C    0.741580    0.507667    0.021533
C743    C    0.675600    0.636900    0.318333
C744    C    0.724400    0.537933    0.327167
Ni63    Ni    0.698960    0.584653    0.613143
O249    O    0.648260    0.449873    0.464300
O250    O    0.750980    0.377693    0.456733
O251    O    0.787380    0.450743    0.499100
O252    O    0.613300    0.373267    0.491400
N125    N    0.725580    0.614300    0.565400
N126    N    0.672220    0.548700    0.571700
C745    C    0.717560    0.653100    0.504467
H497    H    0.700040    0.662067    0.481367
C746    C    0.758640    0.666000    0.511233
C747    C    0.783420    0.651533    0.545133
H498    H    0.612040    0.659267    0.550167
C748    C    0.681540    0.506367    0.514700
H499    H    0.699020    0.497000    0.492600
C749    C    0.696060    0.534400    0.540567
H500    H    0.723820    0.543767    0.535967
C750    C    0.702300    0.626967    0.531667
H501    H    0.674420    0.617667    0.526367
C751    C    0.765700    0.625900    0.571233
H502    H    0.782660    0.616100    0.594200
C752    C    0.632900    0.534833    0.578200
H503    H    0.615860    0.544867    0.600233
C753    C    0.616520    0.506767    0.554200
H504    H    0.788920    0.497500    0.559700
C754    C    0.641580    0.492333    0.521533
C755    C    0.775600    0.363100    0.485000
C756    C    0.624400    0.462067    0.493833
Ni64    Ni    0.798960    0.415347    0.446477
O253    O    0.748260    0.550127    0.630967
O254    O    0.650980    0.622307    0.623400
O255    O    0.687380    0.549257    0.665767
O256    O    0.713300    0.626733    0.658067
N127    N    0.625580    0.385700    0.398733
N128    N    0.772220    0.451300    0.405033
C757    C    0.617560    0.346900    0.337800
H505    H    0.600040    0.337933    0.648033
C758    C    0.658640    0.334000    0.344567
C759    C    0.683420    0.348467    0.378467
H506    H    0.712040    0.340733    0.383500
C760    C    0.781540    0.493633    0.348033
H507    H    0.799020    0.503000    0.659267
C761    C    0.796060    0.465600    0.373900
H508    H    0.623820    0.456233    0.369300
C762    C    0.602300    0.373033    0.365000
H509    H    0.774420    0.382333    0.359700
C763    C    0.665700    0.374100    0.404567
H510    H    0.682660    0.383900    0.427533
C764    C    0.732900    0.465167    0.411533
H511    H    0.715860    0.455133    0.433567
C765    C    0.716520    0.493233    0.387533
H512    H    0.688920    0.502500    0.393033
C766    C    0.741580    0.507667    0.354867
C767    C    0.675600    0.636900    0.651667
C768    C    0.724400    0.537933    0.660500
Ni65    Ni    0.698960    0.584653    0.946477
O257    O    0.648260    0.449873    0.797633
O258    O    0.750980    0.377693    0.790067
O259    O    0.787380    0.450743    0.832433
O260    O    0.613300    0.373267    0.824733
N129    N    0.725580    0.614300    0.898733
N130    N    0.672220    0.548700    0.905033
C769    C    0.717560    0.653100    0.837800
H513    H    0.700040    0.662067    0.814700
C770    C    0.758640    0.666000    0.844567
C771    C    0.783420    0.651533    0.878467
H514    H    0.612040    0.659267    0.883500
C772    C    0.681540    0.506367    0.848033
H515    H    0.699020    0.497000    0.825933
C773    C    0.696060    0.534400    0.873900
H516    H    0.723820    0.543767    0.869300
C774    C    0.702300    0.626967    0.865000
H517    H    0.674420    0.617667    0.859700
C775    C    0.765700    0.625900    0.904567
H518    H    0.782660    0.616100    0.927533
C776    C    0.632900    0.534833    0.911533
H519    H    0.615860    0.544867    0.933567
C777    C    0.616520    0.506767    0.887533
H520    H    0.788920    0.497500    0.893033
C778    C    0.641580    0.492333    0.854867
C779    C    0.775600    0.363100    0.818333
C780    C    0.624400    0.462067    0.827167
Ni66    Ni    0.798960    0.415347    0.779810
O261    O    0.748260    0.550127    0.964300
O262    O    0.650980    0.622307    0.956733
O263    O    0.687380    0.549257    0.999100
O264    O    0.713300    0.626733    0.991400
N131    N    0.625580    0.385700    0.732067
N132    N    0.772220    0.451300    0.738367
C781    C    0.617560    0.346900    0.671133
H521    H    0.600040    0.337933    0.981367
C782    C    0.658640    0.334000    0.677900
C783    C    0.683420    0.348467    0.711800
H522    H    0.712040    0.340733    0.716833
C784    C    0.781540    0.493633    0.681367
H523    H    0.799020    0.503000    0.992600
C785    C    0.796060    0.465600    0.707233
H524    H    0.623820    0.456233    0.702633
C786    C    0.602300    0.373033    0.698333
H525    H    0.774420    0.382333    0.693033
C787    C    0.665700    0.374100    0.737900
H526    H    0.682660    0.383900    0.760867
C788    C    0.732900    0.465167    0.744867
H527    H    0.715860    0.455133    0.766900
C789    C    0.716520    0.493233    0.720867
H528    H    0.688920    0.502500    0.726367
C790    C    0.741580    0.507667    0.688200
C791    C    0.675600    0.636900    0.985000
C792    C    0.724400    0.537933    0.993833
Ni67    Ni    0.698960    0.917987    0.279810
O265    O    0.648260    0.783207    0.130967
O266    O    0.750980    0.711027    0.123400
O267    O    0.787380    0.784077    0.165767
O268    O    0.613300    0.706600    0.158067
N133    N    0.725580    0.947633    0.232067
N134    N    0.672220    0.882033    0.238367
C793    C    0.717560    0.986433    0.171133
H529    H    0.700040    0.995400    0.148033
C794    C    0.758640    0.999333    0.177900
C795    C    0.783420    0.984867    0.211800
H530    H    0.612040    0.992600    0.216833
C796    C    0.681540    0.839700    0.181367
H531    H    0.699020    0.830333    0.159267
C797    C    0.696060    0.867733    0.207233
H532    H    0.723820    0.877100    0.202633
C798    C    0.702300    0.960300    0.198333
H533    H    0.674420    0.951000    0.193033
C799    C    0.765700    0.959233    0.237900
H534    H    0.782660    0.949433    0.260867
C800    C    0.632900    0.868167    0.244867
H535    H    0.615860    0.878200    0.266900
C801    C    0.616520    0.840100    0.220867
H536    H    0.788920    0.830833    0.226367
C802    C    0.641580    0.825667    0.188200
C803    C    0.775600    0.696433    0.151667
C804    C    0.624400    0.795400    0.160500
Ni68    Ni    0.798960    0.748680    0.113143
O269    O    0.748260    0.883460    0.297633
O270    O    0.650980    0.955640    0.290067
O271    O    0.687380    0.882590    0.332433
O272    O    0.713300    0.960067    0.324733
N135    N    0.625580    0.719033    0.065400
N136    N    0.772220    0.784633    0.071700
C805    C    0.617560    0.680233    0.004467
H537    H    0.600040    0.671267    0.314700
C806    C    0.658640    0.667333    0.011233
C807    C    0.683420    0.681800    0.045133
H538    H    0.712040    0.674067    0.050167
C808    C    0.781540    0.826967    0.014700
H539    H    0.799020    0.836333    0.325933
C809    C    0.796060    0.798933    0.040567
H540    H    0.623820    0.789567    0.035967
C810    C    0.602300    0.706367    0.031667
H541    H    0.774420    0.715667    0.026367
C811    C    0.665700    0.707433    0.071233
H542    H    0.682660    0.717233    0.094200
C812    C    0.732900    0.798500    0.078200
H543    H    0.715860    0.788467    0.100233
C813    C    0.716520    0.826567    0.054200
H544    H    0.688920    0.835833    0.059700
C814    C    0.741580    0.841000    0.021533
C815    C    0.675600    0.970233    0.318333
C816    C    0.724400    0.871267    0.327167
Ni69    Ni    0.698960    0.917987    0.613143
O273    O    0.648260    0.783207    0.464300
O274    O    0.750980    0.711027    0.456733
O275    O    0.787380    0.784077    0.499100
O276    O    0.613300    0.706600    0.491400
N137    N    0.725580    0.947633    0.565400
N138    N    0.672220    0.882033    0.571700
C817    C    0.717560    0.986433    0.504467
H545    H    0.700040    0.995400    0.481367
C818    C    0.758640    0.999333    0.511233
C819    C    0.783420    0.984867    0.545133
H546    H    0.612040    0.992600    0.550167
C820    C    0.681540    0.839700    0.514700
H547    H    0.699020    0.830333    0.492600
C821    C    0.696060    0.867733    0.540567
H548    H    0.723820    0.877100    0.535967
C822    C    0.702300    0.960300    0.531667
H549    H    0.674420    0.951000    0.526367
C823    C    0.765700    0.959233    0.571233
H550    H    0.782660    0.949433    0.594200
C824    C    0.632900    0.868167    0.578200
H551    H    0.615860    0.878200    0.600233
C825    C    0.616520    0.840100    0.554200
H552    H    0.788920    0.830833    0.559700
C826    C    0.641580    0.825667    0.521533
C827    C    0.775600    0.696433    0.485000
C828    C    0.624400    0.795400    0.493833
Ni70    Ni    0.798960    0.748680    0.446477
O277    O    0.748260    0.883460    0.630967
O278    O    0.650980    0.955640    0.623400
O279    O    0.687380    0.882590    0.665767
O280    O    0.713300    0.960067    0.658067
N139    N    0.625580    0.719033    0.398733
N140    N    0.772220    0.784633    0.405033
C829    C    0.617560    0.680233    0.337800
H553    H    0.600040    0.671267    0.648033
C830    C    0.658640    0.667333    0.344567
C831    C    0.683420    0.681800    0.378467
H554    H    0.712040    0.674067    0.383500
C832    C    0.781540    0.826967    0.348033
H555    H    0.799020    0.836333    0.659267
C833    C    0.796060    0.798933    0.373900
H556    H    0.623820    0.789567    0.369300
C834    C    0.602300    0.706367    0.365000
H557    H    0.774420    0.715667    0.359700
C835    C    0.665700    0.707433    0.404567
H558    H    0.682660    0.717233    0.427533
C836    C    0.732900    0.798500    0.411533
H559    H    0.715860    0.788467    0.433567
C837    C    0.716520    0.826567    0.387533
H560    H    0.688920    0.835833    0.393033
C838    C    0.741580    0.841000    0.354867
C839    C    0.675600    0.970233    0.651667
C840    C    0.724400    0.871267    0.660500
Ni71    Ni    0.698960    0.917987    0.946477
O281    O    0.648260    0.783207    0.797633
O282    O    0.750980    0.711027    0.790067
O283    O    0.787380    0.784077    0.832433
O284    O    0.613300    0.706600    0.824733
N141    N    0.725580    0.947633    0.898733
N142    N    0.672220    0.882033    0.905033
C841    C    0.717560    0.986433    0.837800
H561    H    0.700040    0.995400    0.814700
C842    C    0.758640    0.999333    0.844567
C843    C    0.783420    0.984867    0.878467
H562    H    0.612040    0.992600    0.883500
C844    C    0.681540    0.839700    0.848033
H563    H    0.699020    0.830333    0.825933
C845    C    0.696060    0.867733    0.873900
H564    H    0.723820    0.877100    0.869300
C846    C    0.702300    0.960300    0.865000
H565    H    0.674420    0.951000    0.859700
C847    C    0.765700    0.959233    0.904567
H566    H    0.782660    0.949433    0.927533
C848    C    0.632900    0.868167    0.911533
H567    H    0.615860    0.878200    0.933567
C849    C    0.616520    0.840100    0.887533
H568    H    0.788920    0.830833    0.893033
C850    C    0.641580    0.825667    0.854867
C851    C    0.775600    0.696433    0.818333
C852    C    0.624400    0.795400    0.827167
Ni72    Ni    0.798960    0.748680    0.779810
O285    O    0.748260    0.883460    0.964300
O286    O    0.650980    0.955640    0.956733
O287    O    0.687380    0.882590    0.999100
O288    O    0.713300    0.960067    0.991400
N143    N    0.625580    0.719033    0.732067
N144    N    0.772220    0.784633    0.738367
C853    C    0.617560    0.680233    0.671133
H569    H    0.600040    0.671267    0.981367
C854    C    0.658640    0.667333    0.677900
C855    C    0.683420    0.681800    0.711800
H570    H    0.712040    0.674067    0.716833
C856    C    0.781540    0.826967    0.681367
H571    H    0.799020    0.836333    0.992600
C857    C    0.796060    0.798933    0.707233
H572    H    0.623820    0.789567    0.702633
C858    C    0.602300    0.706367    0.698333
H573    H    0.774420    0.715667    0.693033
C859    C    0.665700    0.707433    0.737900
H574    H    0.682660    0.717233    0.760867
C860    C    0.732900    0.798500    0.744867
H575    H    0.715860    0.788467    0.766900
C861    C    0.716520    0.826567    0.720867
H576    H    0.688920    0.835833    0.726367
C862    C    0.741580    0.841000    0.688200
C863    C    0.675600    0.970233    0.985000
C864    C    0.724400    0.871267    0.993833
Ni73    Ni    0.898960    0.251320    0.279810
O289    O    0.848260    0.116540    0.130967
O290    O    0.950980    0.044360    0.123400
O291    O    0.987380    0.117410    0.165767
O292    O    0.813300    0.039933    0.158067
N145    N    0.925580    0.280967    0.232067
N146    N    0.872220    0.215367    0.238367
C865    C    0.917560    0.319767    0.171133
H577    H    0.900040    0.328733    0.148033
C866    C    0.958640    0.332667    0.177900
C867    C    0.983420    0.318200    0.211800
H578    H    0.812040    0.325933    0.216833
C868    C    0.881540    0.173033    0.181367
H579    H    0.899020    0.163667    0.159267
C869    C    0.896060    0.201067    0.207233
H580    H    0.923820    0.210433    0.202633
C870    C    0.902300    0.293633    0.198333
H581    H    0.874420    0.284333    0.193033
C871    C    0.965700    0.292567    0.237900
H582    H    0.982660    0.282767    0.260867
C872    C    0.832900    0.201500    0.244867
H583    H    0.815860    0.211533    0.266900
C873    C    0.816520    0.173433    0.220867
H584    H    0.988920    0.164167    0.226367
C874    C    0.841580    0.159000    0.188200
C875    C    0.975600    0.029767    0.151667
C876    C    0.824400    0.128733    0.160500
Ni74    Ni    0.998960    0.082013    0.113143
O293    O    0.948260    0.216793    0.297633
O294    O    0.850980    0.288973    0.290067
O295    O    0.887380    0.215923    0.332433
O296    O    0.913300    0.293400    0.324733
N147    N    0.825580    0.052367    0.065400
N148    N    0.972220    0.117967    0.071700
C877    C    0.817560    0.013567    0.004467
H585    H    0.800040    0.004600    0.314700
C878    C    0.858640    0.000667    0.011233
C879    C    0.883420    0.015133    0.045133
H586    H    0.912040    0.007400    0.050167
C880    C    0.981540    0.160300    0.014700
H587    H    0.999020    0.169667    0.325933
C881    C    0.996060    0.132267    0.040567
H588    H    0.823820    0.122900    0.035967
C882    C    0.802300    0.039700    0.031667
H589    H    0.974420    0.049000    0.026367
C883    C    0.865700    0.040767    0.071233
H590    H    0.882660    0.050567    0.094200
C884    C    0.932900    0.131833    0.078200
H591    H    0.915860    0.121800    0.100233
C885    C    0.916520    0.159900    0.054200
H592    H    0.888920    0.169167    0.059700
C886    C    0.941580    0.174333    0.021533
C887    C    0.875600    0.303567    0.318333
C888    C    0.924400    0.204600    0.327167
Ni75    Ni    0.898960    0.251320    0.613143
O297    O    0.848260    0.116540    0.464300
O298    O    0.950980    0.044360    0.456733
O299    O    0.987380    0.117410    0.499100
O300    O    0.813300    0.039933    0.491400
N149    N    0.925580    0.280967    0.565400
N150    N    0.872220    0.215367    0.571700
C889    C    0.917560    0.319767    0.504467
H593    H    0.900040    0.328733    0.481367
C890    C    0.958640    0.332667    0.511233
C891    C    0.983420    0.318200    0.545133
H594    H    0.812040    0.325933    0.550167
C892    C    0.881540    0.173033    0.514700
H595    H    0.899020    0.163667    0.492600
C893    C    0.896060    0.201067    0.540567
H596    H    0.923820    0.210433    0.535967
C894    C    0.902300    0.293633    0.531667
H597    H    0.874420    0.284333    0.526367
C895    C    0.965700    0.292567    0.571233
H598    H    0.982660    0.282767    0.594200
C896    C    0.832900    0.201500    0.578200
H599    H    0.815860    0.211533    0.600233
C897    C    0.816520    0.173433    0.554200
H600    H    0.988920    0.164167    0.559700
C898    C    0.841580    0.159000    0.521533
C899    C    0.975600    0.029767    0.485000
C900    C    0.824400    0.128733    0.493833
Ni76    Ni    0.998960    0.082013    0.446477
O301    O    0.948260    0.216793    0.630967
O302    O    0.850980    0.288973    0.623400
O303    O    0.887380    0.215923    0.665767
O304    O    0.913300    0.293400    0.658067
N151    N    0.825580    0.052367    0.398733
N152    N    0.972220    0.117967    0.405033
C901    C    0.817560    0.013567    0.337800
H601    H    0.800040    0.004600    0.648033
C902    C    0.858640    0.000667    0.344567
C903    C    0.883420    0.015133    0.378467
H602    H    0.912040    0.007400    0.383500
C904    C    0.981540    0.160300    0.348033
H603    H    0.999020    0.169667    0.659267
C905    C    0.996060    0.132267    0.373900
H604    H    0.823820    0.122900    0.369300
C906    C    0.802300    0.039700    0.365000
H605    H    0.974420    0.049000    0.359700
C907    C    0.865700    0.040767    0.404567
H606    H    0.882660    0.050567    0.427533
C908    C    0.932900    0.131833    0.411533
H607    H    0.915860    0.121800    0.433567
C909    C    0.916520    0.159900    0.387533
H608    H    0.888920    0.169167    0.393033
C910    C    0.941580    0.174333    0.354867
C911    C    0.875600    0.303567    0.651667
C912    C    0.924400    0.204600    0.660500
Ni77    Ni    0.898960    0.251320    0.946477
O305    O    0.848260    0.116540    0.797633
O306    O    0.950980    0.044360    0.790067
O307    O    0.987380    0.117410    0.832433
O308    O    0.813300    0.039933    0.824733
N153    N    0.925580    0.280967    0.898733
N154    N    0.872220    0.215367    0.905033
C913    C    0.917560    0.319767    0.837800
H609    H    0.900040    0.328733    0.814700
C914    C    0.958640    0.332667    0.844567
C915    C    0.983420    0.318200    0.878467
H610    H    0.812040    0.325933    0.883500
C916    C    0.881540    0.173033    0.848033
H611    H    0.899020    0.163667    0.825933
C917    C    0.896060    0.201067    0.873900
H612    H    0.923820    0.210433    0.869300
C918    C    0.902300    0.293633    0.865000
H613    H    0.874420    0.284333    0.859700
C919    C    0.965700    0.292567    0.904567
H614    H    0.982660    0.282767    0.927533
C920    C    0.832900    0.201500    0.911533
H615    H    0.815860    0.211533    0.933567
C921    C    0.816520    0.173433    0.887533
H616    H    0.988920    0.164167    0.893033
C922    C    0.841580    0.159000    0.854867
C923    C    0.975600    0.029767    0.818333
C924    C    0.824400    0.128733    0.827167
Ni78    Ni    0.998960    0.082013    0.779810
O309    O    0.948260    0.216793    0.964300
O310    O    0.850980    0.288973    0.956733
O311    O    0.887380    0.215923    0.999100
O312    O    0.913300    0.293400    0.991400
N155    N    0.825580    0.052367    0.732067
N156    N    0.972220    0.117967    0.738367
C925    C    0.817560    0.013567    0.671133
H617    H    0.800040    0.004600    0.981367
C926    C    0.858640    0.000667    0.677900
C927    C    0.883420    0.015133    0.711800
H618    H    0.912040    0.007400    0.716833
C928    C    0.981540    0.160300    0.681367
H619    H    0.999020    0.169667    0.992600
C929    C    0.996060    0.132267    0.707233
H620    H    0.823820    0.122900    0.702633
C930    C    0.802300    0.039700    0.698333
H621    H    0.974420    0.049000    0.693033
C931    C    0.865700    0.040767    0.737900
H622    H    0.882660    0.050567    0.760867
C932    C    0.932900    0.131833    0.744867
H623    H    0.915860    0.121800    0.766900
C933    C    0.916520    0.159900    0.720867
H624    H    0.888920    0.169167    0.726367
C934    C    0.941580    0.174333    0.688200
C935    C    0.875600    0.303567    0.985000
C936    C    0.924400    0.204600    0.993833
Ni79    Ni    0.898960    0.584653    0.279810
O313    O    0.848260    0.449873    0.130967
O314    O    0.950980    0.377693    0.123400
O315    O    0.987380    0.450743    0.165767
O316    O    0.813300    0.373267    0.158067
N157    N    0.925580    0.614300    0.232067
N158    N    0.872220    0.548700    0.238367
C937    C    0.917560    0.653100    0.171133
H625    H    0.900040    0.662067    0.148033
C938    C    0.958640    0.666000    0.177900
C939    C    0.983420    0.651533    0.211800
H626    H    0.812040    0.659267    0.216833
C940    C    0.881540    0.506367    0.181367
H627    H    0.899020    0.497000    0.159267
C941    C    0.896060    0.534400    0.207233
H628    H    0.923820    0.543767    0.202633
C942    C    0.902300    0.626967    0.198333
H629    H    0.874420    0.617667    0.193033
C943    C    0.965700    0.625900    0.237900
H630    H    0.982660    0.616100    0.260867
C944    C    0.832900    0.534833    0.244867
H631    H    0.815860    0.544867    0.266900
C945    C    0.816520    0.506767    0.220867
H632    H    0.988920    0.497500    0.226367
C946    C    0.841580    0.492333    0.188200
C947    C    0.975600    0.363100    0.151667
C948    C    0.824400    0.462067    0.160500
Ni80    Ni    0.998960    0.415347    0.113143
O317    O    0.948260    0.550127    0.297633
O318    O    0.850980    0.622307    0.290067
O319    O    0.887380    0.549257    0.332433
O320    O    0.913300    0.626733    0.324733
N159    N    0.825580    0.385700    0.065400
N160    N    0.972220    0.451300    0.071700
C949    C    0.817560    0.346900    0.004467
H633    H    0.800040    0.337933    0.314700
C950    C    0.858640    0.334000    0.011233
C951    C    0.883420    0.348467    0.045133
H634    H    0.912040    0.340733    0.050167
C952    C    0.981540    0.493633    0.014700
H635    H    0.999020    0.503000    0.325933
C953    C    0.996060    0.465600    0.040567
H636    H    0.823820    0.456233    0.035967
C954    C    0.802300    0.373033    0.031667
H637    H    0.974420    0.382333    0.026367
C955    C    0.865700    0.374100    0.071233
H638    H    0.882660    0.383900    0.094200
C956    C    0.932900    0.465167    0.078200
H639    H    0.915860    0.455133    0.100233
C957    C    0.916520    0.493233    0.054200
H640    H    0.888920    0.502500    0.059700
C958    C    0.941580    0.507667    0.021533
C959    C    0.875600    0.636900    0.318333
C960    C    0.924400    0.537933    0.327167
Ni81    Ni    0.898960    0.584653    0.613143
O321    O    0.848260    0.449873    0.464300
O322    O    0.950980    0.377693    0.456733
O323    O    0.987380    0.450743    0.499100
O324    O    0.813300    0.373267    0.491400
N161    N    0.925580    0.614300    0.565400
N162    N    0.872220    0.548700    0.571700
C961    C    0.917560    0.653100    0.504467
H641    H    0.900040    0.662067    0.481367
C962    C    0.958640    0.666000    0.511233
C963    C    0.983420    0.651533    0.545133
H642    H    0.812040    0.659267    0.550167
C964    C    0.881540    0.506367    0.514700
H643    H    0.899020    0.497000    0.492600
C965    C    0.896060    0.534400    0.540567
H644    H    0.923820    0.543767    0.535967
C966    C    0.902300    0.626967    0.531667
H645    H    0.874420    0.617667    0.526367
C967    C    0.965700    0.625900    0.571233
H646    H    0.982660    0.616100    0.594200
C968    C    0.832900    0.534833    0.578200
H647    H    0.815860    0.544867    0.600233
C969    C    0.816520    0.506767    0.554200
H648    H    0.988920    0.497500    0.559700
C970    C    0.841580    0.492333    0.521533
C971    C    0.975600    0.363100    0.485000
C972    C    0.824400    0.462067    0.493833
Ni82    Ni    0.998960    0.415347    0.446477
O325    O    0.948260    0.550127    0.630967
O326    O    0.850980    0.622307    0.623400
O327    O    0.887380    0.549257    0.665767
O328    O    0.913300    0.626733    0.658067
N163    N    0.825580    0.385700    0.398733
N164    N    0.972220    0.451300    0.405033
C973    C    0.817560    0.346900    0.337800
H649    H    0.800040    0.337933    0.648033
C974    C    0.858640    0.334000    0.344567
C975    C    0.883420    0.348467    0.378467
H650    H    0.912040    0.340733    0.383500
C976    C    0.981540    0.493633    0.348033
H651    H    0.999020    0.503000    0.659267
C977    C    0.996060    0.465600    0.373900
H652    H    0.823820    0.456233    0.369300
C978    C    0.802300    0.373033    0.365000
H653    H    0.974420    0.382333    0.359700
C979    C    0.865700    0.374100    0.404567
H654    H    0.882660    0.383900    0.427533
C980    C    0.932900    0.465167    0.411533
H655    H    0.915860    0.455133    0.433567
C981    C    0.916520    0.493233    0.387533
H656    H    0.888920    0.502500    0.393033
C982    C    0.941580    0.507667    0.354867
C983    C    0.875600    0.636900    0.651667
C984    C    0.924400    0.537933    0.660500
Ni83    Ni    0.898960    0.584653    0.946477
O329    O    0.848260    0.449873    0.797633
O330    O    0.950980    0.377693    0.790067
O331    O    0.987380    0.450743    0.832433
O332    O    0.813300    0.373267    0.824733
N165    N    0.925580    0.614300    0.898733
N166    N    0.872220    0.548700    0.905033
C985    C    0.917560    0.653100    0.837800
H657    H    0.900040    0.662067    0.814700
C986    C    0.958640    0.666000    0.844567
C987    C    0.983420    0.651533    0.878467
H658    H    0.812040    0.659267    0.883500
C988    C    0.881540    0.506367    0.848033
H659    H    0.899020    0.497000    0.825933
C989    C    0.896060    0.534400    0.873900
H660    H    0.923820    0.543767    0.869300
C990    C    0.902300    0.626967    0.865000
H661    H    0.874420    0.617667    0.859700
C991    C    0.965700    0.625900    0.904567
H662    H    0.982660    0.616100    0.927533
C992    C    0.832900    0.534833    0.911533
H663    H    0.815860    0.544867    0.933567
C993    C    0.816520    0.506767    0.887533
H664    H    0.988920    0.497500    0.893033
C994    C    0.841580    0.492333    0.854867
C995    C    0.975600    0.363100    0.818333
C996    C    0.824400    0.462067    0.827167
Ni84    Ni    0.998960    0.415347    0.779810
O333    O    0.948260    0.550127    0.964300
O334    O    0.850980    0.622307    0.956733
O335    O    0.887380    0.549257    0.999100
O336    O    0.913300    0.626733    0.991400
N167    N    0.825580    0.385700    0.732067
N168    N    0.972220    0.451300    0.738367
C997    C    0.817560    0.346900    0.671133
H665    H    0.800040    0.337933    0.981367
C998    C    0.858640    0.334000    0.677900
C999    C    0.883420    0.348467    0.711800
H666    H    0.912040    0.340733    0.716833
C1000    C    0.981540    0.493633    0.681367
H667    H    0.999020    0.503000    0.992600
C1001    C    0.996060    0.465600    0.707233
H668    H    0.823820    0.456233    0.702633
C1002    C    0.802300    0.373033    0.698333
H669    H    0.974420    0.382333    0.693033
C1003    C    0.865700    0.374100    0.737900
H670    H    0.882660    0.383900    0.760867
C1004    C    0.932900    0.465167    0.744867
H671    H    0.915860    0.455133    0.766900
C1005    C    0.916520    0.493233    0.720867
H672    H    0.888920    0.502500    0.726367
C1006    C    0.941580    0.507667    0.688200
C1007    C    0.875600    0.636900    0.985000
C1008    C    0.924400    0.537933    0.993833
Ni85    Ni    0.898960    0.917987    0.279810
O337    O    0.848260    0.783207    0.130967
O338    O    0.950980    0.711027    0.123400
O339    O    0.987380    0.784077    0.165767
O340    O    0.813300    0.706600    0.158067
N169    N    0.925580    0.947633    0.232067
N170    N    0.872220    0.882033    0.238367
C1009    C    0.917560    0.986433    0.171133
H673    H    0.900040    0.995400    0.148033
C1010    C    0.958640    0.999333    0.177900
C1011    C    0.983420    0.984867    0.211800
H674    H    0.812040    0.992600    0.216833
C1012    C    0.881540    0.839700    0.181367
H675    H    0.899020    0.830333    0.159267
C1013    C    0.896060    0.867733    0.207233
H676    H    0.923820    0.877100    0.202633
C1014    C    0.902300    0.960300    0.198333
H677    H    0.874420    0.951000    0.193033
C1015    C    0.965700    0.959233    0.237900
H678    H    0.982660    0.949433    0.260867
C1016    C    0.832900    0.868167    0.244867
H679    H    0.815860    0.878200    0.266900
C1017    C    0.816520    0.840100    0.220867
H680    H    0.988920    0.830833    0.226367
C1018    C    0.841580    0.825667    0.188200
C1019    C    0.975600    0.696433    0.151667
C1020    C    0.824400    0.795400    0.160500
Ni86    Ni    0.998960    0.748680    0.113143
O341    O    0.948260    0.883460    0.297633
O342    O    0.850980    0.955640    0.290067
O343    O    0.887380    0.882590    0.332433
O344    O    0.913300    0.960067    0.324733
N171    N    0.825580    0.719033    0.065400
N172    N    0.972220    0.784633    0.071700
C1021    C    0.817560    0.680233    0.004467
H681    H    0.800040    0.671267    0.314700
C1022    C    0.858640    0.667333    0.011233
C1023    C    0.883420    0.681800    0.045133
H682    H    0.912040    0.674067    0.050167
C1024    C    0.981540    0.826967    0.014700
H683    H    0.999020    0.836333    0.325933
C1025    C    0.996060    0.798933    0.040567
H684    H    0.823820    0.789567    0.035967
C1026    C    0.802300    0.706367    0.031667
H685    H    0.974420    0.715667    0.026367
C1027    C    0.865700    0.707433    0.071233
H686    H    0.882660    0.717233    0.094200
C1028    C    0.932900    0.798500    0.078200
H687    H    0.915860    0.788467    0.100233
C1029    C    0.916520    0.826567    0.054200
H688    H    0.888920    0.835833    0.059700
C1030    C    0.941580    0.841000    0.021533
C1031    C    0.875600    0.970233    0.318333
C1032    C    0.924400    0.871267    0.327167
Ni87    Ni    0.898960    0.917987    0.613143
O345    O    0.848260    0.783207    0.464300
O346    O    0.950980    0.711027    0.456733
O347    O    0.987380    0.784077    0.499100
O348    O    0.813300    0.706600    0.491400
N173    N    0.925580    0.947633    0.565400
N174    N    0.872220    0.882033    0.571700
C1033    C    0.917560    0.986433    0.504467
H689    H    0.900040    0.995400    0.481367
C1034    C    0.958640    0.999333    0.511233
C1035    C    0.983420    0.984867    0.545133
H690    H    0.812040    0.992600    0.550167
C1036    C    0.881540    0.839700    0.514700
H691    H    0.899020    0.830333    0.492600
C1037    C    0.896060    0.867733    0.540567
H692    H    0.923820    0.877100    0.535967
C1038    C    0.902300    0.960300    0.531667
H693    H    0.874420    0.951000    0.526367
C1039    C    0.965700    0.959233    0.571233
H694    H    0.982660    0.949433    0.594200
C1040    C    0.832900    0.868167    0.578200
H695    H    0.815860    0.878200    0.600233
C1041    C    0.816520    0.840100    0.554200
H696    H    0.988920    0.830833    0.559700
C1042    C    0.841580    0.825667    0.521533
C1043    C    0.975600    0.696433    0.485000
C1044    C    0.824400    0.795400    0.493833
Ni88    Ni    0.998960    0.748680    0.446477
O349    O    0.948260    0.883460    0.630967
O350    O    0.850980    0.955640    0.623400
O351    O    0.887380    0.882590    0.665767
O352    O    0.913300    0.960067    0.658067
N175    N    0.825580    0.719033    0.398733
N176    N    0.972220    0.784633    0.405033
C1045    C    0.817560    0.680233    0.337800
H697    H    0.800040    0.671267    0.648033
C1046    C    0.858640    0.667333    0.344567
C1047    C    0.883420    0.681800    0.378467
H698    H    0.912040    0.674067    0.383500
C1048    C    0.981540    0.826967    0.348033
H699    H    0.999020    0.836333    0.659267
C1049    C    0.996060    0.798933    0.373900
H700    H    0.823820    0.789567    0.369300
C1050    C    0.802300    0.706367    0.365000
H701    H    0.974420    0.715667    0.359700
C1051    C    0.865700    0.707433    0.404567
H702    H    0.882660    0.717233    0.427533
C1052    C    0.932900    0.798500    0.411533
H703    H    0.915860    0.788467    0.433567
C1053    C    0.916520    0.826567    0.387533
H704    H    0.888920    0.835833    0.393033
C1054    C    0.941580    0.841000    0.354867
C1055    C    0.875600    0.970233    0.651667
C1056    C    0.924400    0.871267    0.660500
Ni89    Ni    0.898960    0.917987    0.946477
O353    O    0.848260    0.783207    0.797633
O354    O    0.950980    0.711027    0.790067
O355    O    0.987380    0.784077    0.832433
O356    O    0.813300    0.706600    0.824733
N177    N    0.925580    0.947633    0.898733
N178    N    0.872220    0.882033    0.905033
C1057    C    0.917560    0.986433    0.837800
H705    H    0.900040    0.995400    0.814700
C1058    C    0.958640    0.999333    0.844567
C1059    C    0.983420    0.984867    0.878467
H706    H    0.812040    0.992600    0.883500
C1060    C    0.881540    0.839700    0.848033
H707    H    0.899020    0.830333    0.825933
C1061    C    0.896060    0.867733    0.873900
H708    H    0.923820    0.877100    0.869300
C1062    C    0.902300    0.960300    0.865000
H709    H    0.874420    0.951000    0.859700
C1063    C    0.965700    0.959233    0.904567
H710    H    0.982660    0.949433    0.927533
C1064    C    0.832900    0.868167    0.911533
H711    H    0.815860    0.878200    0.933567
C1065    C    0.816520    0.840100    0.887533
H712    H    0.988920    0.830833    0.893033
C1066    C    0.841580    0.825667    0.854867
C1067    C    0.975600    0.696433    0.818333
C1068    C    0.824400    0.795400    0.827167
Ni90    Ni    0.998960    0.748680    0.779810
O357    O    0.948260    0.883460    0.964300
O358    O    0.850980    0.955640    0.956733
O359    O    0.887380    0.882590    0.999100
O360    O    0.913300    0.960067    0.991400
N179    N    0.825580    0.719033    0.732067
N180    N    0.972220    0.784633    0.738367
C1069    C    0.817560    0.680233    0.671133
H713    H    0.800040    0.671267    0.981367
C1070    C    0.858640    0.667333    0.677900
C1071    C    0.883420    0.681800    0.711800
H714    H    0.912040    0.674067    0.716833
C1072    C    0.981540    0.826967    0.681367
H715    H    0.999020    0.836333    0.992600
C1073    C    0.996060    0.798933    0.707233
H716    H    0.823820    0.789567    0.702633
C1074    C    0.802300    0.706367    0.698333
H717    H    0.974420    0.715667    0.693033
C1075    C    0.865700    0.707433    0.737900
H718    H    0.882660    0.717233    0.760867
C1076    C    0.932900    0.798500    0.744867
H719    H    0.915860    0.788467    0.766900
C1077    C    0.916520    0.826567    0.720867
H720    H    0.888920    0.835833    0.726367
C1078    C    0.941580    0.841000    0.688200
C1079    C    0.875600    0.970233    0.985000
C1080    C    0.924400    0.871267    0.993833
Kr1    Kr    0.132339    0.738382    0.249541
