data_NiPyC2_experiment_PM
_symmetry_space_group_name_H-M	'P1'
_cell_length_a	18.758400
_cell_length_b	37.570200
_cell_length_c	30.830400
_cell_angle_alpha	90.000000
_cell_angle_beta	91.269000
_cell_angle_gamma	90.000000
_symmetry_Int_Tables_number 1

loop_
_symmetry_equiv_pos_as_xyz
'x,y,z'

loop_
_atom_site_label
_atom_site_type_symbol
_atom_site_fract_x
_atom_site_fract_y
_atom_site_fract_z
Ni1	Ni	0.164933	0.251320	0.279810
O1	O	0.080433	0.116540	0.130967
O2	O	0.251633	0.044360	0.123400
O3	O	0.312300	0.117410	0.165767
O4	O	0.022167	0.039933	0.158067
N1	N	0.209300	0.280967	0.232067
N2	N	0.120367	0.215367	0.238367
C1	C	0.195933	0.319767	0.171133
H1	H	0.166733	0.328733	0.148033
C2	C	0.264400	0.332667	0.177900
C3	C	0.305700	0.318200	0.211800
H2	H	0.020067	0.325933	0.216833
C4	C	0.135900	0.173033	0.181367
H3	H	0.165033	0.163667	0.159267
C5	C	0.160100	0.201067	0.207233
H4	H	0.206367	0.210433	0.202633
C6	C	0.170500	0.293633	0.198333
H5	H	0.124033	0.284333	0.193033
C7	C	0.276167	0.292567	0.237900
H6	H	0.304433	0.282767	0.260867
C8	C	0.054833	0.201500	0.244867
H7	H	0.026433	0.211533	0.266900
C9	C	0.027533	0.173433	0.220867
H8	H	0.314867	0.164167	0.226367
C10	C	0.069300	0.159000	0.188200
C11	C	0.292667	0.029767	0.151667
C12	C	0.040667	0.128733	0.160500
Ni2	Ni	0.331600	0.082013	0.113143
O5	O	0.247100	0.216793	0.297633
O6	O	0.084967	0.288973	0.290067
O7	O	0.145633	0.215923	0.332433
O8	O	0.188833	0.293400	0.324733
N3	N	0.042633	0.052367	0.065400
N4	N	0.287033	0.117967	0.071700
C13	C	0.029267	0.013567	0.004467
H9	H	0.000067	0.004600	0.314700
C14	C	0.097733	0.000667	0.011233
C15	C	0.139033	0.015133	0.045133
H10	H	0.186733	0.007400	0.050167
C16	C	0.302567	0.160300	0.014700
H11	H	0.331700	0.169667	0.325933
C17	C	0.326767	0.132267	0.040567
H12	H	0.039700	0.122900	0.035967
C18	C	0.003833	0.039700	0.031667
H13	H	0.290700	0.049000	0.026367
C19	C	0.109500	0.040767	0.071233
H14	H	0.137767	0.050567	0.094200
C20	C	0.221500	0.131833	0.078200
H15	H	0.193100	0.121800	0.100233
C21	C	0.194200	0.159900	0.054200
H16	H	0.148200	0.169167	0.059700
C22	C	0.235967	0.174333	0.021533
C23	C	0.126000	0.303567	0.318333
C24	C	0.207333	0.204600	0.327167
Ni3	Ni	0.164933	0.251320	0.613143
O9	O	0.080433	0.116540	0.464300
O10	O	0.251633	0.044360	0.456733
O11	O	0.312300	0.117410	0.499100
O12	O	0.022167	0.039933	0.491400
N5	N	0.209300	0.280967	0.565400
N6	N	0.120367	0.215367	0.571700
C25	C	0.195933	0.319767	0.504467
H17	H	0.166733	0.328733	0.481367
C26	C	0.264400	0.332667	0.511233
C27	C	0.305700	0.318200	0.545133
H18	H	0.020067	0.325933	0.550167
C28	C	0.135900	0.173033	0.514700
H19	H	0.165033	0.163667	0.492600
C29	C	0.160100	0.201067	0.540567
H20	H	0.206367	0.210433	0.535967
C30	C	0.170500	0.293633	0.531667
H21	H	0.124033	0.284333	0.526367
C31	C	0.276167	0.292567	0.571233
H22	H	0.304433	0.282767	0.594200
C32	C	0.054833	0.201500	0.578200
H23	H	0.026433	0.211533	0.600233
C33	C	0.027533	0.173433	0.554200
H24	H	0.314867	0.164167	0.559700
C34	C	0.069300	0.159000	0.521533
C35	C	0.292667	0.029767	0.485000
C36	C	0.040667	0.128733	0.493833
Ni4	Ni	0.331600	0.082013	0.446477
O13	O	0.247100	0.216793	0.630967
O14	O	0.084967	0.288973	0.623400
O15	O	0.145633	0.215923	0.665767
O16	O	0.188833	0.293400	0.658067
N7	N	0.042633	0.052367	0.398733
N8	N	0.287033	0.117967	0.405033
C37	C	0.029267	0.013567	0.337800
H25	H	0.000067	0.004600	0.648033
C38	C	0.097733	0.000667	0.344567
C39	C	0.139033	0.015133	0.378467
H26	H	0.186733	0.007400	0.383500
C40	C	0.302567	0.160300	0.348033
H27	H	0.331700	0.169667	0.659267
C41	C	0.326767	0.132267	0.373900
H28	H	0.039700	0.122900	0.369300
C42	C	0.003833	0.039700	0.365000
H29	H	0.290700	0.049000	0.359700
C43	C	0.109500	0.040767	0.404567
H30	H	0.137767	0.050567	0.427533
C44	C	0.221500	0.131833	0.411533
H31	H	0.193100	0.121800	0.433567
C45	C	0.194200	0.159900	0.387533
H32	H	0.148200	0.169167	0.393033
C46	C	0.235967	0.174333	0.354867
C47	C	0.126000	0.303567	0.651667
C48	C	0.207333	0.204600	0.660500
Ni5	Ni	0.164933	0.251320	0.946477
O17	O	0.080433	0.116540	0.797633
O18	O	0.251633	0.044360	0.790067
O19	O	0.312300	0.117410	0.832433
O20	O	0.022167	0.039933	0.824733
N9	N	0.209300	0.280967	0.898733
N10	N	0.120367	0.215367	0.905033
C49	C	0.195933	0.319767	0.837800
H33	H	0.166733	0.328733	0.814700
C50	C	0.264400	0.332667	0.844567
C51	C	0.305700	0.318200	0.878467
H34	H	0.020067	0.325933	0.883500
C52	C	0.135900	0.173033	0.848033
H35	H	0.165033	0.163667	0.825933
C53	C	0.160100	0.201067	0.873900
H36	H	0.206367	0.210433	0.869300
C54	C	0.170500	0.293633	0.865000
H37	H	0.124033	0.284333	0.859700
C55	C	0.276167	0.292567	0.904567
H38	H	0.304433	0.282767	0.927533
C56	C	0.054833	0.201500	0.911533
H39	H	0.026433	0.211533	0.933567
C57	C	0.027533	0.173433	0.887533
H40	H	0.314867	0.164167	0.893033
C58	C	0.069300	0.159000	0.854867
C59	C	0.292667	0.029767	0.818333
C60	C	0.040667	0.128733	0.827167
Ni6	Ni	0.331600	0.082013	0.779810
O21	O	0.247100	0.216793	0.964300
O22	O	0.084967	0.288973	0.956733
O23	O	0.145633	0.215923	0.999100
O24	O	0.188833	0.293400	0.991400
N11	N	0.042633	0.052367	0.732067
N12	N	0.287033	0.117967	0.738367
C61	C	0.029267	0.013567	0.671133
H41	H	0.000067	0.004600	0.981367
C62	C	0.097733	0.000667	0.677900
C63	C	0.139033	0.015133	0.711800
H42	H	0.186733	0.007400	0.716833
C64	C	0.302567	0.160300	0.681367
H43	H	0.331700	0.169667	0.992600
C65	C	0.326767	0.132267	0.707233
H44	H	0.039700	0.122900	0.702633
C66	C	0.003833	0.039700	0.698333
H45	H	0.290700	0.049000	0.693033
C67	C	0.109500	0.040767	0.737900
H46	H	0.137767	0.050567	0.760867
C68	C	0.221500	0.131833	0.744867
H47	H	0.193100	0.121800	0.766900
C69	C	0.194200	0.159900	0.720867
H48	H	0.148200	0.169167	0.726367
C70	C	0.235967	0.174333	0.688200
C71	C	0.126000	0.303567	0.985000
C72	C	0.207333	0.204600	0.993833
Ni7	Ni	0.164933	0.584653	0.279810
O25	O	0.080433	0.449873	0.130967
O26	O	0.251633	0.377693	0.123400
O27	O	0.312300	0.450743	0.165767
O28	O	0.022167	0.373267	0.158067
N13	N	0.209300	0.614300	0.232067
N14	N	0.120367	0.548700	0.238367
C73	C	0.195933	0.653100	0.171133
H49	H	0.166733	0.662067	0.148033
C74	C	0.264400	0.666000	0.177900
C75	C	0.305700	0.651533	0.211800
H50	H	0.020067	0.659267	0.216833
C76	C	0.135900	0.506367	0.181367
H51	H	0.165033	0.497000	0.159267
C77	C	0.160100	0.534400	0.207233
H52	H	0.206367	0.543767	0.202633
C78	C	0.170500	0.626967	0.198333
H53	H	0.124033	0.617667	0.193033
C79	C	0.276167	0.625900	0.237900
H54	H	0.304433	0.616100	0.260867
C80	C	0.054833	0.534833	0.244867
H55	H	0.026433	0.544867	0.266900
C81	C	0.027533	0.506767	0.220867
H56	H	0.314867	0.497500	0.226367
C82	C	0.069300	0.492333	0.188200
C83	C	0.292667	0.363100	0.151667
C84	C	0.040667	0.462067	0.160500
Ni8	Ni	0.331600	0.415347	0.113143
O29	O	0.247100	0.550127	0.297633
O30	O	0.084967	0.622307	0.290067
O31	O	0.145633	0.549257	0.332433
O32	O	0.188833	0.626733	0.324733
N15	N	0.042633	0.385700	0.065400
N16	N	0.287033	0.451300	0.071700
C85	C	0.029267	0.346900	0.004467
H57	H	0.000067	0.337933	0.314700
C86	C	0.097733	0.334000	0.011233
C87	C	0.139033	0.348467	0.045133
H58	H	0.186733	0.340733	0.050167
C88	C	0.302567	0.493633	0.014700
H59	H	0.331700	0.503000	0.325933
C89	C	0.326767	0.465600	0.040567
H60	H	0.039700	0.456233	0.035967
C90	C	0.003833	0.373033	0.031667
H61	H	0.290700	0.382333	0.026367
C91	C	0.109500	0.374100	0.071233
H62	H	0.137767	0.383900	0.094200
C92	C	0.221500	0.465167	0.078200
H63	H	0.193100	0.455133	0.100233
C93	C	0.194200	0.493233	0.054200
H64	H	0.148200	0.502500	0.059700
C94	C	0.235967	0.507667	0.021533
C95	C	0.126000	0.636900	0.318333
C96	C	0.207333	0.537933	0.327167
Ni9	Ni	0.164933	0.584653	0.613143
O33	O	0.080433	0.449873	0.464300
O34	O	0.251633	0.377693	0.456733
O35	O	0.312300	0.450743	0.499100
O36	O	0.022167	0.373267	0.491400
N17	N	0.209300	0.614300	0.565400
N18	N	0.120367	0.548700	0.571700
C97	C	0.195933	0.653100	0.504467
H65	H	0.166733	0.662067	0.481367
C98	C	0.264400	0.666000	0.511233
C99	C	0.305700	0.651533	0.545133
H66	H	0.020067	0.659267	0.550167
C100	C	0.135900	0.506367	0.514700
H67	H	0.165033	0.497000	0.492600
C101	C	0.160100	0.534400	0.540567
H68	H	0.206367	0.543767	0.535967
C102	C	0.170500	0.626967	0.531667
H69	H	0.124033	0.617667	0.526367
C103	C	0.276167	0.625900	0.571233
H70	H	0.304433	0.616100	0.594200
C104	C	0.054833	0.534833	0.578200
H71	H	0.026433	0.544867	0.600233
C105	C	0.027533	0.506767	0.554200
H72	H	0.314867	0.497500	0.559700
C106	C	0.069300	0.492333	0.521533
C107	C	0.292667	0.363100	0.485000
C108	C	0.040667	0.462067	0.493833
Ni10	Ni	0.331600	0.415347	0.446477
O37	O	0.247100	0.550127	0.630967
O38	O	0.084967	0.622307	0.623400
O39	O	0.145633	0.549257	0.665767
O40	O	0.188833	0.626733	0.658067
N19	N	0.042633	0.385700	0.398733
N20	N	0.287033	0.451300	0.405033
C109	C	0.029267	0.346900	0.337800
H73	H	0.000067	0.337933	0.648033
C110	C	0.097733	0.334000	0.344567
C111	C	0.139033	0.348467	0.378467
H74	H	0.186733	0.340733	0.383500
C112	C	0.302567	0.493633	0.348033
H75	H	0.331700	0.503000	0.659267
C113	C	0.326767	0.465600	0.373900
H76	H	0.039700	0.456233	0.369300
C114	C	0.003833	0.373033	0.365000
H77	H	0.290700	0.382333	0.359700
C115	C	0.109500	0.374100	0.404567
H78	H	0.137767	0.383900	0.427533
C116	C	0.221500	0.465167	0.411533
H79	H	0.193100	0.455133	0.433567
C117	C	0.194200	0.493233	0.387533
H80	H	0.148200	0.502500	0.393033
C118	C	0.235967	0.507667	0.354867
C119	C	0.126000	0.636900	0.651667
C120	C	0.207333	0.537933	0.660500
Ni11	Ni	0.164933	0.584653	0.946477
O41	O	0.080433	0.449873	0.797633
O42	O	0.251633	0.377693	0.790067
O43	O	0.312300	0.450743	0.832433
O44	O	0.022167	0.373267	0.824733
N21	N	0.209300	0.614300	0.898733
N22	N	0.120367	0.548700	0.905033
C121	C	0.195933	0.653100	0.837800
H81	H	0.166733	0.662067	0.814700
C122	C	0.264400	0.666000	0.844567
C123	C	0.305700	0.651533	0.878467
H82	H	0.020067	0.659267	0.883500
C124	C	0.135900	0.506367	0.848033
H83	H	0.165033	0.497000	0.825933
C125	C	0.160100	0.534400	0.873900
H84	H	0.206367	0.543767	0.869300
C126	C	0.170500	0.626967	0.865000
H85	H	0.124033	0.617667	0.859700
C127	C	0.276167	0.625900	0.904567
H86	H	0.304433	0.616100	0.927533
C128	C	0.054833	0.534833	0.911533
H87	H	0.026433	0.544867	0.933567
C129	C	0.027533	0.506767	0.887533
H88	H	0.314867	0.497500	0.893033
C130	C	0.069300	0.492333	0.854867
C131	C	0.292667	0.363100	0.818333
C132	C	0.040667	0.462067	0.827167
Ni12	Ni	0.331600	0.415347	0.779810
O45	O	0.247100	0.550127	0.964300
O46	O	0.084967	0.622307	0.956733
O47	O	0.145633	0.549257	0.999100
O48	O	0.188833	0.626733	0.991400
N23	N	0.042633	0.385700	0.732067
N24	N	0.287033	0.451300	0.738367
C133	C	0.029267	0.346900	0.671133
H89	H	0.000067	0.337933	0.981367
C134	C	0.097733	0.334000	0.677900
C135	C	0.139033	0.348467	0.711800
H90	H	0.186733	0.340733	0.716833
C136	C	0.302567	0.493633	0.681367
H91	H	0.331700	0.503000	0.992600
C137	C	0.326767	0.465600	0.707233
H92	H	0.039700	0.456233	0.702633
C138	C	0.003833	0.373033	0.698333
H93	H	0.290700	0.382333	0.693033
C139	C	0.109500	0.374100	0.737900
H94	H	0.137767	0.383900	0.760867
C140	C	0.221500	0.465167	0.744867
H95	H	0.193100	0.455133	0.766900
C141	C	0.194200	0.493233	0.720867
H96	H	0.148200	0.502500	0.726367
C142	C	0.235967	0.507667	0.688200
C143	C	0.126000	0.636900	0.985000
C144	C	0.207333	0.537933	0.993833
Ni13	Ni	0.164933	0.917987	0.279810
O49	O	0.080433	0.783207	0.130967
O50	O	0.251633	0.711027	0.123400
O51	O	0.312300	0.784077	0.165767
O52	O	0.022167	0.706600	0.158067
N25	N	0.209300	0.947633	0.232067
N26	N	0.120367	0.882033	0.238367
C145	C	0.195933	0.986433	0.171133
H97	H	0.166733	0.995400	0.148033
C146	C	0.264400	0.999333	0.177900
C147	C	0.305700	0.984867	0.211800
H98	H	0.020067	0.992600	0.216833
C148	C	0.135900	0.839700	0.181367
H99	H	0.165033	0.830333	0.159267
C149	C	0.160100	0.867733	0.207233
H100	H	0.206367	0.877100	0.202633
C150	C	0.170500	0.960300	0.198333
H101	H	0.124033	0.951000	0.193033
C151	C	0.276167	0.959233	0.237900
H102	H	0.304433	0.949433	0.260867
C152	C	0.054833	0.868167	0.244867
H103	H	0.026433	0.878200	0.266900
C153	C	0.027533	0.840100	0.220867
H104	H	0.314867	0.830833	0.226367
C154	C	0.069300	0.825667	0.188200
C155	C	0.292667	0.696433	0.151667
C156	C	0.040667	0.795400	0.160500
Ni14	Ni	0.331600	0.748680	0.113143
O53	O	0.247100	0.883460	0.297633
O54	O	0.084967	0.955640	0.290067
O55	O	0.145633	0.882590	0.332433
O56	O	0.188833	0.960067	0.324733
N27	N	0.042633	0.719033	0.065400
N28	N	0.287033	0.784633	0.071700
C157	C	0.029267	0.680233	0.004467
H105	H	0.000067	0.671267	0.314700
C158	C	0.097733	0.667333	0.011233
C159	C	0.139033	0.681800	0.045133
H106	H	0.186733	0.674067	0.050167
C160	C	0.302567	0.826967	0.014700
H107	H	0.331700	0.836333	0.325933
C161	C	0.326767	0.798933	0.040567
H108	H	0.039700	0.789567	0.035967
C162	C	0.003833	0.706367	0.031667
H109	H	0.290700	0.715667	0.026367
C163	C	0.109500	0.707433	0.071233
H110	H	0.137767	0.717233	0.094200
C164	C	0.221500	0.798500	0.078200
H111	H	0.193100	0.788467	0.100233
C165	C	0.194200	0.826567	0.054200
H112	H	0.148200	0.835833	0.059700
C166	C	0.235967	0.841000	0.021533
C167	C	0.126000	0.970233	0.318333
C168	C	0.207333	0.871267	0.327167
Ni15	Ni	0.164933	0.917987	0.613143
O57	O	0.080433	0.783207	0.464300
O58	O	0.251633	0.711027	0.456733
O59	O	0.312300	0.784077	0.499100
O60	O	0.022167	0.706600	0.491400
N29	N	0.209300	0.947633	0.565400
N30	N	0.120367	0.882033	0.571700
C169	C	0.195933	0.986433	0.504467
H113	H	0.166733	0.995400	0.481367
C170	C	0.264400	0.999333	0.511233
C171	C	0.305700	0.984867	0.545133
H114	H	0.020067	0.992600	0.550167
C172	C	0.135900	0.839700	0.514700
H115	H	0.165033	0.830333	0.492600
C173	C	0.160100	0.867733	0.540567
H116	H	0.206367	0.877100	0.535967
C174	C	0.170500	0.960300	0.531667
H117	H	0.124033	0.951000	0.526367
C175	C	0.276167	0.959233	0.571233
H118	H	0.304433	0.949433	0.594200
C176	C	0.054833	0.868167	0.578200
H119	H	0.026433	0.878200	0.600233
C177	C	0.027533	0.840100	0.554200
H120	H	0.314867	0.830833	0.559700
C178	C	0.069300	0.825667	0.521533
C179	C	0.292667	0.696433	0.485000
C180	C	0.040667	0.795400	0.493833
Ni16	Ni	0.331600	0.748680	0.446477
O61	O	0.247100	0.883460	0.630967
O62	O	0.084967	0.955640	0.623400
O63	O	0.145633	0.882590	0.665767
O64	O	0.188833	0.960067	0.658067
N31	N	0.042633	0.719033	0.398733
N32	N	0.287033	0.784633	0.405033
C181	C	0.029267	0.680233	0.337800
H121	H	0.000067	0.671267	0.648033
C182	C	0.097733	0.667333	0.344567
C183	C	0.139033	0.681800	0.378467
H122	H	0.186733	0.674067	0.383500
C184	C	0.302567	0.826967	0.348033
H123	H	0.331700	0.836333	0.659267
C185	C	0.326767	0.798933	0.373900
H124	H	0.039700	0.789567	0.369300
C186	C	0.003833	0.706367	0.365000
H125	H	0.290700	0.715667	0.359700
C187	C	0.109500	0.707433	0.404567
H126	H	0.137767	0.717233	0.427533
C188	C	0.221500	0.798500	0.411533
H127	H	0.193100	0.788467	0.433567
C189	C	0.194200	0.826567	0.387533
H128	H	0.148200	0.835833	0.393033
C190	C	0.235967	0.841000	0.354867
C191	C	0.126000	0.970233	0.651667
C192	C	0.207333	0.871267	0.660500
Ni17	Ni	0.164933	0.917987	0.946477
O65	O	0.080433	0.783207	0.797633
O66	O	0.251633	0.711027	0.790067
O67	O	0.312300	0.784077	0.832433
O68	O	0.022167	0.706600	0.824733
N33	N	0.209300	0.947633	0.898733
N34	N	0.120367	0.882033	0.905033
C193	C	0.195933	0.986433	0.837800
H129	H	0.166733	0.995400	0.814700
C194	C	0.264400	0.999333	0.844567
C195	C	0.305700	0.984867	0.878467
H130	H	0.020067	0.992600	0.883500
C196	C	0.135900	0.839700	0.848033
H131	H	0.165033	0.830333	0.825933
C197	C	0.160100	0.867733	0.873900
H132	H	0.206367	0.877100	0.869300
C198	C	0.170500	0.960300	0.865000
H133	H	0.124033	0.951000	0.859700
C199	C	0.276167	0.959233	0.904567
H134	H	0.304433	0.949433	0.927533
C200	C	0.054833	0.868167	0.911533
H135	H	0.026433	0.878200	0.933567
C201	C	0.027533	0.840100	0.887533
H136	H	0.314867	0.830833	0.893033
C202	C	0.069300	0.825667	0.854867
C203	C	0.292667	0.696433	0.818333
C204	C	0.040667	0.795400	0.827167
Ni18	Ni	0.331600	0.748680	0.779810
O69	O	0.247100	0.883460	0.964300
O70	O	0.084967	0.955640	0.956733
O71	O	0.145633	0.882590	0.999100
O72	O	0.188833	0.960067	0.991400
N35	N	0.042633	0.719033	0.732067
N36	N	0.287033	0.784633	0.738367
C205	C	0.029267	0.680233	0.671133
H137	H	0.000067	0.671267	0.981367
C206	C	0.097733	0.667333	0.677900
C207	C	0.139033	0.681800	0.711800
H138	H	0.186733	0.674067	0.716833
C208	C	0.302567	0.826967	0.681367
H139	H	0.331700	0.836333	0.992600
C209	C	0.326767	0.798933	0.707233
H140	H	0.039700	0.789567	0.702633
C210	C	0.003833	0.706367	0.698333
H141	H	0.290700	0.715667	0.693033
C211	C	0.109500	0.707433	0.737900
H142	H	0.137767	0.717233	0.760867
C212	C	0.221500	0.798500	0.744867
H143	H	0.193100	0.788467	0.766900
C213	C	0.194200	0.826567	0.720867
H144	H	0.148200	0.835833	0.726367
C214	C	0.235967	0.841000	0.688200
C215	C	0.126000	0.970233	0.985000
C216	C	0.207333	0.871267	0.993833
Ni19	Ni	0.498267	0.251320	0.279810
O73	O	0.413767	0.116540	0.130967
O74	O	0.584967	0.044360	0.123400
O75	O	0.645633	0.117410	0.165767
O76	O	0.355500	0.039933	0.158067
N37	N	0.542633	0.280967	0.232067
N38	N	0.453700	0.215367	0.238367
C217	C	0.529267	0.319767	0.171133
H145	H	0.500067	0.328733	0.148033
C218	C	0.597733	0.332667	0.177900
C219	C	0.639033	0.318200	0.211800
H146	H	0.353400	0.325933	0.216833
C220	C	0.469233	0.173033	0.181367
H147	H	0.498367	0.163667	0.159267
C221	C	0.493433	0.201067	0.207233
H148	H	0.539700	0.210433	0.202633
C222	C	0.503833	0.293633	0.198333
H149	H	0.457367	0.284333	0.193033
C223	C	0.609500	0.292567	0.237900
H150	H	0.637767	0.282767	0.260867
C224	C	0.388167	0.201500	0.244867
H151	H	0.359767	0.211533	0.266900
C225	C	0.360867	0.173433	0.220867
H152	H	0.648200	0.164167	0.226367
C226	C	0.402633	0.159000	0.188200
C227	C	0.626000	0.029767	0.151667
C228	C	0.374000	0.128733	0.160500
Ni20	Ni	0.664933	0.082013	0.113143
O77	O	0.580433	0.216793	0.297633
O78	O	0.418300	0.288973	0.290067
O79	O	0.478967	0.215923	0.332433
O80	O	0.522167	0.293400	0.324733
N39	N	0.375967	0.052367	0.065400
N40	N	0.620367	0.117967	0.071700
C229	C	0.362600	0.013567	0.004467
H153	H	0.333400	0.004600	0.314700
C230	C	0.431067	0.000667	0.011233
C231	C	0.472367	0.015133	0.045133
H154	H	0.520067	0.007400	0.050167
C232	C	0.635900	0.160300	0.014700
H155	H	0.665033	0.169667	0.325933
C233	C	0.660100	0.132267	0.040567
H156	H	0.373033	0.122900	0.035967
C234	C	0.337167	0.039700	0.031667
H157	H	0.624033	0.049000	0.026367
C235	C	0.442833	0.040767	0.071233
H158	H	0.471100	0.050567	0.094200
C236	C	0.554833	0.131833	0.078200
H159	H	0.526433	0.121800	0.100233
C237	C	0.527533	0.159900	0.054200
H160	H	0.481533	0.169167	0.059700
C238	C	0.569300	0.174333	0.021533
C239	C	0.459333	0.303567	0.318333
C240	C	0.540667	0.204600	0.327167
Ni21	Ni	0.498267	0.251320	0.613143
O81	O	0.413767	0.116540	0.464300
O82	O	0.584967	0.044360	0.456733
O83	O	0.645633	0.117410	0.499100
O84	O	0.355500	0.039933	0.491400
N41	N	0.542633	0.280967	0.565400
N42	N	0.453700	0.215367	0.571700
C241	C	0.529267	0.319767	0.504467
H161	H	0.500067	0.328733	0.481367
C242	C	0.597733	0.332667	0.511233
C243	C	0.639033	0.318200	0.545133
H162	H	0.353400	0.325933	0.550167
C244	C	0.469233	0.173033	0.514700
H163	H	0.498367	0.163667	0.492600
C245	C	0.493433	0.201067	0.540567
H164	H	0.539700	0.210433	0.535967
C246	C	0.503833	0.293633	0.531667
H165	H	0.457367	0.284333	0.526367
C247	C	0.609500	0.292567	0.571233
H166	H	0.637767	0.282767	0.594200
C248	C	0.388167	0.201500	0.578200
H167	H	0.359767	0.211533	0.600233
C249	C	0.360867	0.173433	0.554200
H168	H	0.648200	0.164167	0.559700
C250	C	0.402633	0.159000	0.521533
C251	C	0.626000	0.029767	0.485000
C252	C	0.374000	0.128733	0.493833
Ni22	Ni	0.664933	0.082013	0.446477
O85	O	0.580433	0.216793	0.630967
O86	O	0.418300	0.288973	0.623400
O87	O	0.478967	0.215923	0.665767
O88	O	0.522167	0.293400	0.658067
N43	N	0.375967	0.052367	0.398733
N44	N	0.620367	0.117967	0.405033
C253	C	0.362600	0.013567	0.337800
H169	H	0.333400	0.004600	0.648033
C254	C	0.431067	0.000667	0.344567
C255	C	0.472367	0.015133	0.378467
H170	H	0.520067	0.007400	0.383500
C256	C	0.635900	0.160300	0.348033
H171	H	0.665033	0.169667	0.659267
C257	C	0.660100	0.132267	0.373900
H172	H	0.373033	0.122900	0.369300
C258	C	0.337167	0.039700	0.365000
H173	H	0.624033	0.049000	0.359700
C259	C	0.442833	0.040767	0.404567
H174	H	0.471100	0.050567	0.427533
C260	C	0.554833	0.131833	0.411533
H175	H	0.526433	0.121800	0.433567
C261	C	0.527533	0.159900	0.387533
H176	H	0.481533	0.169167	0.393033
C262	C	0.569300	0.174333	0.354867
C263	C	0.459333	0.303567	0.651667
C264	C	0.540667	0.204600	0.660500
Ni23	Ni	0.498267	0.251320	0.946477
O89	O	0.413767	0.116540	0.797633
O90	O	0.584967	0.044360	0.790067
O91	O	0.645633	0.117410	0.832433
O92	O	0.355500	0.039933	0.824733
N45	N	0.542633	0.280967	0.898733
N46	N	0.453700	0.215367	0.905033
C265	C	0.529267	0.319767	0.837800
H177	H	0.500067	0.328733	0.814700
C266	C	0.597733	0.332667	0.844567
C267	C	0.639033	0.318200	0.878467
H178	H	0.353400	0.325933	0.883500
C268	C	0.469233	0.173033	0.848033
H179	H	0.498367	0.163667	0.825933
C269	C	0.493433	0.201067	0.873900
H180	H	0.539700	0.210433	0.869300
C270	C	0.503833	0.293633	0.865000
H181	H	0.457367	0.284333	0.859700
C271	C	0.609500	0.292567	0.904567
H182	H	0.637767	0.282767	0.927533
C272	C	0.388167	0.201500	0.911533
H183	H	0.359767	0.211533	0.933567
C273	C	0.360867	0.173433	0.887533
H184	H	0.648200	0.164167	0.893033
C274	C	0.402633	0.159000	0.854867
C275	C	0.626000	0.029767	0.818333
C276	C	0.374000	0.128733	0.827167
Ni24	Ni	0.664933	0.082013	0.779810
O93	O	0.580433	0.216793	0.964300
O94	O	0.418300	0.288973	0.956733
O95	O	0.478967	0.215923	0.999100
O96	O	0.522167	0.293400	0.991400
N47	N	0.375967	0.052367	0.732067
N48	N	0.620367	0.117967	0.738367
C277	C	0.362600	0.013567	0.671133
H185	H	0.333400	0.004600	0.981367
C278	C	0.431067	0.000667	0.677900
C279	C	0.472367	0.015133	0.711800
H186	H	0.520067	0.007400	0.716833
C280	C	0.635900	0.160300	0.681367
H187	H	0.665033	0.169667	0.992600
C281	C	0.660100	0.132267	0.707233
H188	H	0.373033	0.122900	0.702633
C282	C	0.337167	0.039700	0.698333
H189	H	0.624033	0.049000	0.693033
C283	C	0.442833	0.040767	0.737900
H190	H	0.471100	0.050567	0.760867
C284	C	0.554833	0.131833	0.744867
H191	H	0.526433	0.121800	0.766900
C285	C	0.527533	0.159900	0.720867
H192	H	0.481533	0.169167	0.726367
C286	C	0.569300	0.174333	0.688200
C287	C	0.459333	0.303567	0.985000
C288	C	0.540667	0.204600	0.993833
Ni25	Ni	0.498267	0.584653	0.279810
O97	O	0.413767	0.449873	0.130967
O98	O	0.584967	0.377693	0.123400
O99	O	0.645633	0.450743	0.165767
O100	O	0.355500	0.373267	0.158067
N49	N	0.542633	0.614300	0.232067
N50	N	0.453700	0.548700	0.238367
C289	C	0.529267	0.653100	0.171133
H193	H	0.500067	0.662067	0.148033
C290	C	0.597733	0.666000	0.177900
C291	C	0.639033	0.651533	0.211800
H194	H	0.353400	0.659267	0.216833
C292	C	0.469233	0.506367	0.181367
H195	H	0.498367	0.497000	0.159267
C293	C	0.493433	0.534400	0.207233
H196	H	0.539700	0.543767	0.202633
C294	C	0.503833	0.626967	0.198333
H197	H	0.457367	0.617667	0.193033
C295	C	0.609500	0.625900	0.237900
H198	H	0.637767	0.616100	0.260867
C296	C	0.388167	0.534833	0.244867
H199	H	0.359767	0.544867	0.266900
C297	C	0.360867	0.506767	0.220867
H200	H	0.648200	0.497500	0.226367
C298	C	0.402633	0.492333	0.188200
C299	C	0.626000	0.363100	0.151667
C300	C	0.374000	0.462067	0.160500
Ni26	Ni	0.664933	0.415347	0.113143
O101	O	0.580433	0.550127	0.297633
O102	O	0.418300	0.622307	0.290067
O103	O	0.478967	0.549257	0.332433
O104	O	0.522167	0.626733	0.324733
N51	N	0.375967	0.385700	0.065400
N52	N	0.620367	0.451300	0.071700
C301	C	0.362600	0.346900	0.004467
H201	H	0.333400	0.337933	0.314700
C302	C	0.431067	0.334000	0.011233
C303	C	0.472367	0.348467	0.045133
H202	H	0.520067	0.340733	0.050167
C304	C	0.635900	0.493633	0.014700
H203	H	0.665033	0.503000	0.325933
C305	C	0.660100	0.465600	0.040567
H204	H	0.373033	0.456233	0.035967
C306	C	0.337167	0.373033	0.031667
H205	H	0.624033	0.382333	0.026367
C307	C	0.442833	0.374100	0.071233
H206	H	0.471100	0.383900	0.094200
C308	C	0.554833	0.465167	0.078200
H207	H	0.526433	0.455133	0.100233
C309	C	0.527533	0.493233	0.054200
H208	H	0.481533	0.502500	0.059700
C310	C	0.569300	0.507667	0.021533
C311	C	0.459333	0.636900	0.318333
C312	C	0.540667	0.537933	0.327167
Ni27	Ni	0.498267	0.584653	0.613143
O105	O	0.413767	0.449873	0.464300
O106	O	0.584967	0.377693	0.456733
O107	O	0.645633	0.450743	0.499100
O108	O	0.355500	0.373267	0.491400
N53	N	0.542633	0.614300	0.565400
N54	N	0.453700	0.548700	0.571700
C313	C	0.529267	0.653100	0.504467
H209	H	0.500067	0.662067	0.481367
C314	C	0.597733	0.666000	0.511233
C315	C	0.639033	0.651533	0.545133
H210	H	0.353400	0.659267	0.550167
C316	C	0.469233	0.506367	0.514700
H211	H	0.498367	0.497000	0.492600
C317	C	0.493433	0.534400	0.540567
H212	H	0.539700	0.543767	0.535967
C318	C	0.503833	0.626967	0.531667
H213	H	0.457367	0.617667	0.526367
C319	C	0.609500	0.625900	0.571233
H214	H	0.637767	0.616100	0.594200
C320	C	0.388167	0.534833	0.578200
H215	H	0.359767	0.544867	0.600233
C321	C	0.360867	0.506767	0.554200
H216	H	0.648200	0.497500	0.559700
C322	C	0.402633	0.492333	0.521533
C323	C	0.626000	0.363100	0.485000
C324	C	0.374000	0.462067	0.493833
Ni28	Ni	0.664933	0.415347	0.446477
O109	O	0.580433	0.550127	0.630967
O110	O	0.418300	0.622307	0.623400
O111	O	0.478967	0.549257	0.665767
O112	O	0.522167	0.626733	0.658067
N55	N	0.375967	0.385700	0.398733
N56	N	0.620367	0.451300	0.405033
C325	C	0.362600	0.346900	0.337800
H217	H	0.333400	0.337933	0.648033
C326	C	0.431067	0.334000	0.344567
C327	C	0.472367	0.348467	0.378467
H218	H	0.520067	0.340733	0.383500
C328	C	0.635900	0.493633	0.348033
H219	H	0.665033	0.503000	0.659267
C329	C	0.660100	0.465600	0.373900
H220	H	0.373033	0.456233	0.369300
C330	C	0.337167	0.373033	0.365000
H221	H	0.624033	0.382333	0.359700
C331	C	0.442833	0.374100	0.404567
H222	H	0.471100	0.383900	0.427533
C332	C	0.554833	0.465167	0.411533
H223	H	0.526433	0.455133	0.433567
C333	C	0.527533	0.493233	0.387533
H224	H	0.481533	0.502500	0.393033
C334	C	0.569300	0.507667	0.354867
C335	C	0.459333	0.636900	0.651667
C336	C	0.540667	0.537933	0.660500
Ni29	Ni	0.498267	0.584653	0.946477
O113	O	0.413767	0.449873	0.797633
O114	O	0.584967	0.377693	0.790067
O115	O	0.645633	0.450743	0.832433
O116	O	0.355500	0.373267	0.824733
N57	N	0.542633	0.614300	0.898733
N58	N	0.453700	0.548700	0.905033
C337	C	0.529267	0.653100	0.837800
H225	H	0.500067	0.662067	0.814700
C338	C	0.597733	0.666000	0.844567
C339	C	0.639033	0.651533	0.878467
H226	H	0.353400	0.659267	0.883500
C340	C	0.469233	0.506367	0.848033
H227	H	0.498367	0.497000	0.825933
C341	C	0.493433	0.534400	0.873900
H228	H	0.539700	0.543767	0.869300
C342	C	0.503833	0.626967	0.865000
H229	H	0.457367	0.617667	0.859700
C343	C	0.609500	0.625900	0.904567
H230	H	0.637767	0.616100	0.927533
C344	C	0.388167	0.534833	0.911533
H231	H	0.359767	0.544867	0.933567
C345	C	0.360867	0.506767	0.887533
H232	H	0.648200	0.497500	0.893033
C346	C	0.402633	0.492333	0.854867
C347	C	0.626000	0.363100	0.818333
C348	C	0.374000	0.462067	0.827167
Ni30	Ni	0.664933	0.415347	0.779810
O117	O	0.580433	0.550127	0.964300
O118	O	0.418300	0.622307	0.956733
O119	O	0.478967	0.549257	0.999100
O120	O	0.522167	0.626733	0.991400
N59	N	0.375967	0.385700	0.732067
N60	N	0.620367	0.451300	0.738367
C349	C	0.362600	0.346900	0.671133
H233	H	0.333400	0.337933	0.981367
C350	C	0.431067	0.334000	0.677900
C351	C	0.472367	0.348467	0.711800
H234	H	0.520067	0.340733	0.716833
C352	C	0.635900	0.493633	0.681367
H235	H	0.665033	0.503000	0.992600
C353	C	0.660100	0.465600	0.707233
H236	H	0.373033	0.456233	0.702633
C354	C	0.337167	0.373033	0.698333
H237	H	0.624033	0.382333	0.693033
C355	C	0.442833	0.374100	0.737900
H238	H	0.471100	0.383900	0.760867
C356	C	0.554833	0.465167	0.744867
H239	H	0.526433	0.455133	0.766900
C357	C	0.527533	0.493233	0.720867
H240	H	0.481533	0.502500	0.726367
C358	C	0.569300	0.507667	0.688200
C359	C	0.459333	0.636900	0.985000
C360	C	0.540667	0.537933	0.993833
Ni31	Ni	0.498267	0.917987	0.279810
O121	O	0.413767	0.783207	0.130967
O122	O	0.584967	0.711027	0.123400
O123	O	0.645633	0.784077	0.165767
O124	O	0.355500	0.706600	0.158067
N61	N	0.542633	0.947633	0.232067
N62	N	0.453700	0.882033	0.238367
C361	C	0.529267	0.986433	0.171133
H241	H	0.500067	0.995400	0.148033
C362	C	0.597733	0.999333	0.177900
C363	C	0.639033	0.984867	0.211800
H242	H	0.353400	0.992600	0.216833
C364	C	0.469233	0.839700	0.181367
H243	H	0.498367	0.830333	0.159267
C365	C	0.493433	0.867733	0.207233
H244	H	0.539700	0.877100	0.202633
C366	C	0.503833	0.960300	0.198333
H245	H	0.457367	0.951000	0.193033
C367	C	0.609500	0.959233	0.237900
H246	H	0.637767	0.949433	0.260867
C368	C	0.388167	0.868167	0.244867
H247	H	0.359767	0.878200	0.266900
C369	C	0.360867	0.840100	0.220867
H248	H	0.648200	0.830833	0.226367
C370	C	0.402633	0.825667	0.188200
C371	C	0.626000	0.696433	0.151667
C372	C	0.374000	0.795400	0.160500
Ni32	Ni	0.664933	0.748680	0.113143
O125	O	0.580433	0.883460	0.297633
O126	O	0.418300	0.955640	0.290067
O127	O	0.478967	0.882590	0.332433
O128	O	0.522167	0.960067	0.324733
N63	N	0.375967	0.719033	0.065400
N64	N	0.620367	0.784633	0.071700
C373	C	0.362600	0.680233	0.004467
H249	H	0.333400	0.671267	0.314700
C374	C	0.431067	0.667333	0.011233
C375	C	0.472367	0.681800	0.045133
H250	H	0.520067	0.674067	0.050167
C376	C	0.635900	0.826967	0.014700
H251	H	0.665033	0.836333	0.325933
C377	C	0.660100	0.798933	0.040567
H252	H	0.373033	0.789567	0.035967
C378	C	0.337167	0.706367	0.031667
H253	H	0.624033	0.715667	0.026367
C379	C	0.442833	0.707433	0.071233
H254	H	0.471100	0.717233	0.094200
C380	C	0.554833	0.798500	0.078200
H255	H	0.526433	0.788467	0.100233
C381	C	0.527533	0.826567	0.054200
H256	H	0.481533	0.835833	0.059700
C382	C	0.569300	0.841000	0.021533
C383	C	0.459333	0.970233	0.318333
C384	C	0.540667	0.871267	0.327167
Ni33	Ni	0.498267	0.917987	0.613143
O129	O	0.413767	0.783207	0.464300
O130	O	0.584967	0.711027	0.456733
O131	O	0.645633	0.784077	0.499100
O132	O	0.355500	0.706600	0.491400
N65	N	0.542633	0.947633	0.565400
N66	N	0.453700	0.882033	0.571700
C385	C	0.529267	0.986433	0.504467
H257	H	0.500067	0.995400	0.481367
C386	C	0.597733	0.999333	0.511233
C387	C	0.639033	0.984867	0.545133
H258	H	0.353400	0.992600	0.550167
C388	C	0.469233	0.839700	0.514700
H259	H	0.498367	0.830333	0.492600
C389	C	0.493433	0.867733	0.540567
H260	H	0.539700	0.877100	0.535967
C390	C	0.503833	0.960300	0.531667
H261	H	0.457367	0.951000	0.526367
C391	C	0.609500	0.959233	0.571233
H262	H	0.637767	0.949433	0.594200
C392	C	0.388167	0.868167	0.578200
H263	H	0.359767	0.878200	0.600233
C393	C	0.360867	0.840100	0.554200
H264	H	0.648200	0.830833	0.559700
C394	C	0.402633	0.825667	0.521533
C395	C	0.626000	0.696433	0.485000
C396	C	0.374000	0.795400	0.493833
Ni34	Ni	0.664933	0.748680	0.446477
O133	O	0.580433	0.883460	0.630967
O134	O	0.418300	0.955640	0.623400
O135	O	0.478967	0.882590	0.665767
O136	O	0.522167	0.960067	0.658067
N67	N	0.375967	0.719033	0.398733
N68	N	0.620367	0.784633	0.405033
C397	C	0.362600	0.680233	0.337800
H265	H	0.333400	0.671267	0.648033
C398	C	0.431067	0.667333	0.344567
C399	C	0.472367	0.681800	0.378467
H266	H	0.520067	0.674067	0.383500
C400	C	0.635900	0.826967	0.348033
H267	H	0.665033	0.836333	0.659267
C401	C	0.660100	0.798933	0.373900
H268	H	0.373033	0.789567	0.369300
C402	C	0.337167	0.706367	0.365000
H269	H	0.624033	0.715667	0.359700
C403	C	0.442833	0.707433	0.404567
H270	H	0.471100	0.717233	0.427533
C404	C	0.554833	0.798500	0.411533
H271	H	0.526433	0.788467	0.433567
C405	C	0.527533	0.826567	0.387533
H272	H	0.481533	0.835833	0.393033
C406	C	0.569300	0.841000	0.354867
C407	C	0.459333	0.970233	0.651667
C408	C	0.540667	0.871267	0.660500
Ni35	Ni	0.498267	0.917987	0.946477
O137	O	0.413767	0.783207	0.797633
O138	O	0.584967	0.711027	0.790067
O139	O	0.645633	0.784077	0.832433
O140	O	0.355500	0.706600	0.824733
N69	N	0.542633	0.947633	0.898733
N70	N	0.453700	0.882033	0.905033
C409	C	0.529267	0.986433	0.837800
H273	H	0.500067	0.995400	0.814700
C410	C	0.597733	0.999333	0.844567
C411	C	0.639033	0.984867	0.878467
H274	H	0.353400	0.992600	0.883500
C412	C	0.469233	0.839700	0.848033
H275	H	0.498367	0.830333	0.825933
C413	C	0.493433	0.867733	0.873900
H276	H	0.539700	0.877100	0.869300
C414	C	0.503833	0.960300	0.865000
H277	H	0.457367	0.951000	0.859700
C415	C	0.609500	0.959233	0.904567
H278	H	0.637767	0.949433	0.927533
C416	C	0.388167	0.868167	0.911533
H279	H	0.359767	0.878200	0.933567
C417	C	0.360867	0.840100	0.887533
H280	H	0.648200	0.830833	0.893033
C418	C	0.402633	0.825667	0.854867
C419	C	0.626000	0.696433	0.818333
C420	C	0.374000	0.795400	0.827167
Ni36	Ni	0.664933	0.748680	0.779810
O141	O	0.580433	0.883460	0.964300
O142	O	0.418300	0.955640	0.956733
O143	O	0.478967	0.882590	0.999100
O144	O	0.522167	0.960067	0.991400
N71	N	0.375967	0.719033	0.732067
N72	N	0.620367	0.784633	0.738367
C421	C	0.362600	0.680233	0.671133
H281	H	0.333400	0.671267	0.981367
C422	C	0.431067	0.667333	0.677900
C423	C	0.472367	0.681800	0.711800
H282	H	0.520067	0.674067	0.716833
C424	C	0.635900	0.826967	0.681367
H283	H	0.665033	0.836333	0.992600
C425	C	0.660100	0.798933	0.707233
H284	H	0.373033	0.789567	0.702633
C426	C	0.337167	0.706367	0.698333
H285	H	0.624033	0.715667	0.693033
C427	C	0.442833	0.707433	0.737900
H286	H	0.471100	0.717233	0.760867
C428	C	0.554833	0.798500	0.744867
H287	H	0.526433	0.788467	0.766900
C429	C	0.527533	0.826567	0.720867
H288	H	0.481533	0.835833	0.726367
C430	C	0.569300	0.841000	0.688200
C431	C	0.459333	0.970233	0.985000
C432	C	0.540667	0.871267	0.993833
Ni37	Ni	0.831600	0.251320	0.279810
O145	O	0.747100	0.116540	0.130967
O146	O	0.918300	0.044360	0.123400
O147	O	0.978967	0.117410	0.165767
O148	O	0.688833	0.039933	0.158067
N73	N	0.875967	0.280967	0.232067
N74	N	0.787033	0.215367	0.238367
C433	C	0.862600	0.319767	0.171133
H289	H	0.833400	0.328733	0.148033
C434	C	0.931067	0.332667	0.177900
C435	C	0.972367	0.318200	0.211800
H290	H	0.686733	0.325933	0.216833
C436	C	0.802567	0.173033	0.181367
H291	H	0.831700	0.163667	0.159267
C437	C	0.826767	0.201067	0.207233
H292	H	0.873033	0.210433	0.202633
C438	C	0.837167	0.293633	0.198333
H293	H	0.790700	0.284333	0.193033
C439	C	0.942833	0.292567	0.237900
H294	H	0.971100	0.282767	0.260867
C440	C	0.721500	0.201500	0.244867
H295	H	0.693100	0.211533	0.266900
C441	C	0.694200	0.173433	0.220867
H296	H	0.981533	0.164167	0.226367
C442	C	0.735967	0.159000	0.188200
C443	C	0.959333	0.029767	0.151667
C444	C	0.707333	0.128733	0.160500
Ni38	Ni	0.998267	0.082013	0.113143
O149	O	0.913767	0.216793	0.297633
O150	O	0.751633	0.288973	0.290067
O151	O	0.812300	0.215923	0.332433
O152	O	0.855500	0.293400	0.324733
N75	N	0.709300	0.052367	0.065400
N76	N	0.953700	0.117967	0.071700
C445	C	0.695933	0.013567	0.004467
H297	H	0.666733	0.004600	0.314700
C446	C	0.764400	0.000667	0.011233
C447	C	0.805700	0.015133	0.045133
H298	H	0.853400	0.007400	0.050167
C448	C	0.969233	0.160300	0.014700
H299	H	0.998367	0.169667	0.325933
C449	C	0.993433	0.132267	0.040567
H300	H	0.706367	0.122900	0.035967
C450	C	0.670500	0.039700	0.031667
H301	H	0.957367	0.049000	0.026367
C451	C	0.776167	0.040767	0.071233
H302	H	0.804433	0.050567	0.094200
C452	C	0.888167	0.131833	0.078200
H303	H	0.859767	0.121800	0.100233
C453	C	0.860867	0.159900	0.054200
H304	H	0.814867	0.169167	0.059700
C454	C	0.902633	0.174333	0.021533
C455	C	0.792667	0.303567	0.318333
C456	C	0.874000	0.204600	0.327167
Ni39	Ni	0.831600	0.251320	0.613143
O153	O	0.747100	0.116540	0.464300
O154	O	0.918300	0.044360	0.456733
O155	O	0.978967	0.117410	0.499100
O156	O	0.688833	0.039933	0.491400
N77	N	0.875967	0.280967	0.565400
N78	N	0.787033	0.215367	0.571700
C457	C	0.862600	0.319767	0.504467
H305	H	0.833400	0.328733	0.481367
C458	C	0.931067	0.332667	0.511233
C459	C	0.972367	0.318200	0.545133
H306	H	0.686733	0.325933	0.550167
C460	C	0.802567	0.173033	0.514700
H307	H	0.831700	0.163667	0.492600
C461	C	0.826767	0.201067	0.540567
H308	H	0.873033	0.210433	0.535967
C462	C	0.837167	0.293633	0.531667
H309	H	0.790700	0.284333	0.526367
C463	C	0.942833	0.292567	0.571233
H310	H	0.971100	0.282767	0.594200
C464	C	0.721500	0.201500	0.578200
H311	H	0.693100	0.211533	0.600233
C465	C	0.694200	0.173433	0.554200
H312	H	0.981533	0.164167	0.559700
C466	C	0.735967	0.159000	0.521533
C467	C	0.959333	0.029767	0.485000
C468	C	0.707333	0.128733	0.493833
Ni40	Ni	0.998267	0.082013	0.446477
O157	O	0.913767	0.216793	0.630967
O158	O	0.751633	0.288973	0.623400
O159	O	0.812300	0.215923	0.665767
O160	O	0.855500	0.293400	0.658067
N79	N	0.709300	0.052367	0.398733
N80	N	0.953700	0.117967	0.405033
C469	C	0.695933	0.013567	0.337800
H313	H	0.666733	0.004600	0.648033
C470	C	0.764400	0.000667	0.344567
C471	C	0.805700	0.015133	0.378467
H314	H	0.853400	0.007400	0.383500
C472	C	0.969233	0.160300	0.348033
H315	H	0.998367	0.169667	0.659267
C473	C	0.993433	0.132267	0.373900
H316	H	0.706367	0.122900	0.369300
C474	C	0.670500	0.039700	0.365000
H317	H	0.957367	0.049000	0.359700
C475	C	0.776167	0.040767	0.404567
H318	H	0.804433	0.050567	0.427533
C476	C	0.888167	0.131833	0.411533
H319	H	0.859767	0.121800	0.433567
C477	C	0.860867	0.159900	0.387533
H320	H	0.814867	0.169167	0.393033
C478	C	0.902633	0.174333	0.354867
C479	C	0.792667	0.303567	0.651667
C480	C	0.874000	0.204600	0.660500
Ni41	Ni	0.831600	0.251320	0.946477
O161	O	0.747100	0.116540	0.797633
O162	O	0.918300	0.044360	0.790067
O163	O	0.978967	0.117410	0.832433
O164	O	0.688833	0.039933	0.824733
N81	N	0.875967	0.280967	0.898733
N82	N	0.787033	0.215367	0.905033
C481	C	0.862600	0.319767	0.837800
H321	H	0.833400	0.328733	0.814700
C482	C	0.931067	0.332667	0.844567
C483	C	0.972367	0.318200	0.878467
H322	H	0.686733	0.325933	0.883500
C484	C	0.802567	0.173033	0.848033
H323	H	0.831700	0.163667	0.825933
C485	C	0.826767	0.201067	0.873900
H324	H	0.873033	0.210433	0.869300
C486	C	0.837167	0.293633	0.865000
H325	H	0.790700	0.284333	0.859700
C487	C	0.942833	0.292567	0.904567
H326	H	0.971100	0.282767	0.927533
C488	C	0.721500	0.201500	0.911533
H327	H	0.693100	0.211533	0.933567
C489	C	0.694200	0.173433	0.887533
H328	H	0.981533	0.164167	0.893033
C490	C	0.735967	0.159000	0.854867
C491	C	0.959333	0.029767	0.818333
C492	C	0.707333	0.128733	0.827167
Ni42	Ni	0.998267	0.082013	0.779810
O165	O	0.913767	0.216793	0.964300
O166	O	0.751633	0.288973	0.956733
O167	O	0.812300	0.215923	0.999100
O168	O	0.855500	0.293400	0.991400
N83	N	0.709300	0.052367	0.732067
N84	N	0.953700	0.117967	0.738367
C493	C	0.695933	0.013567	0.671133
H329	H	0.666733	0.004600	0.981367
C494	C	0.764400	0.000667	0.677900
C495	C	0.805700	0.015133	0.711800
H330	H	0.853400	0.007400	0.716833
C496	C	0.969233	0.160300	0.681367
H331	H	0.998367	0.169667	0.992600
C497	C	0.993433	0.132267	0.707233
H332	H	0.706367	0.122900	0.702633
C498	C	0.670500	0.039700	0.698333
H333	H	0.957367	0.049000	0.693033
C499	C	0.776167	0.040767	0.737900
H334	H	0.804433	0.050567	0.760867
C500	C	0.888167	0.131833	0.744867
H335	H	0.859767	0.121800	0.766900
C501	C	0.860867	0.159900	0.720867
H336	H	0.814867	0.169167	0.726367
C502	C	0.902633	0.174333	0.688200
C503	C	0.792667	0.303567	0.985000
C504	C	0.874000	0.204600	0.993833
Ni43	Ni	0.831600	0.584653	0.279810
O169	O	0.747100	0.449873	0.130967
O170	O	0.918300	0.377693	0.123400
O171	O	0.978967	0.450743	0.165767
O172	O	0.688833	0.373267	0.158067
N85	N	0.875967	0.614300	0.232067
N86	N	0.787033	0.548700	0.238367
C505	C	0.862600	0.653100	0.171133
H337	H	0.833400	0.662067	0.148033
C506	C	0.931067	0.666000	0.177900
C507	C	0.972367	0.651533	0.211800
H338	H	0.686733	0.659267	0.216833
C508	C	0.802567	0.506367	0.181367
H339	H	0.831700	0.497000	0.159267
C509	C	0.826767	0.534400	0.207233
H340	H	0.873033	0.543767	0.202633
C510	C	0.837167	0.626967	0.198333
H341	H	0.790700	0.617667	0.193033
C511	C	0.942833	0.625900	0.237900
H342	H	0.971100	0.616100	0.260867
C512	C	0.721500	0.534833	0.244867
H343	H	0.693100	0.544867	0.266900
C513	C	0.694200	0.506767	0.220867
H344	H	0.981533	0.497500	0.226367
C514	C	0.735967	0.492333	0.188200
C515	C	0.959333	0.363100	0.151667
C516	C	0.707333	0.462067	0.160500
Ni44	Ni	0.998267	0.415347	0.113143
O173	O	0.913767	0.550127	0.297633
O174	O	0.751633	0.622307	0.290067
O175	O	0.812300	0.549257	0.332433
O176	O	0.855500	0.626733	0.324733
N87	N	0.709300	0.385700	0.065400
N88	N	0.953700	0.451300	0.071700
C517	C	0.695933	0.346900	0.004467
H345	H	0.666733	0.337933	0.314700
C518	C	0.764400	0.334000	0.011233
C519	C	0.805700	0.348467	0.045133
H346	H	0.853400	0.340733	0.050167
C520	C	0.969233	0.493633	0.014700
H347	H	0.998367	0.503000	0.325933
C521	C	0.993433	0.465600	0.040567
H348	H	0.706367	0.456233	0.035967
C522	C	0.670500	0.373033	0.031667
H349	H	0.957367	0.382333	0.026367
C523	C	0.776167	0.374100	0.071233
H350	H	0.804433	0.383900	0.094200
C524	C	0.888167	0.465167	0.078200
H351	H	0.859767	0.455133	0.100233
C525	C	0.860867	0.493233	0.054200
H352	H	0.814867	0.502500	0.059700
C526	C	0.902633	0.507667	0.021533
C527	C	0.792667	0.636900	0.318333
C528	C	0.874000	0.537933	0.327167
Ni45	Ni	0.831600	0.584653	0.613143
O177	O	0.747100	0.449873	0.464300
O178	O	0.918300	0.377693	0.456733
O179	O	0.978967	0.450743	0.499100
O180	O	0.688833	0.373267	0.491400
N89	N	0.875967	0.614300	0.565400
N90	N	0.787033	0.548700	0.571700
C529	C	0.862600	0.653100	0.504467
H353	H	0.833400	0.662067	0.481367
C530	C	0.931067	0.666000	0.511233
C531	C	0.972367	0.651533	0.545133
H354	H	0.686733	0.659267	0.550167
C532	C	0.802567	0.506367	0.514700
H355	H	0.831700	0.497000	0.492600
C533	C	0.826767	0.534400	0.540567
H356	H	0.873033	0.543767	0.535967
C534	C	0.837167	0.626967	0.531667
H357	H	0.790700	0.617667	0.526367
C535	C	0.942833	0.625900	0.571233
H358	H	0.971100	0.616100	0.594200
C536	C	0.721500	0.534833	0.578200
H359	H	0.693100	0.544867	0.600233
C537	C	0.694200	0.506767	0.554200
H360	H	0.981533	0.497500	0.559700
C538	C	0.735967	0.492333	0.521533
C539	C	0.959333	0.363100	0.485000
C540	C	0.707333	0.462067	0.493833
Ni46	Ni	0.998267	0.415347	0.446477
O181	O	0.913767	0.550127	0.630967
O182	O	0.751633	0.622307	0.623400
O183	O	0.812300	0.549257	0.665767
O184	O	0.855500	0.626733	0.658067
N91	N	0.709300	0.385700	0.398733
N92	N	0.953700	0.451300	0.405033
C541	C	0.695933	0.346900	0.337800
H361	H	0.666733	0.337933	0.648033
C542	C	0.764400	0.334000	0.344567
C543	C	0.805700	0.348467	0.378467
H362	H	0.853400	0.340733	0.383500
C544	C	0.969233	0.493633	0.348033
H363	H	0.998367	0.503000	0.659267
C545	C	0.993433	0.465600	0.373900
H364	H	0.706367	0.456233	0.369300
C546	C	0.670500	0.373033	0.365000
H365	H	0.957367	0.382333	0.359700
C547	C	0.776167	0.374100	0.404567
H366	H	0.804433	0.383900	0.427533
C548	C	0.888167	0.465167	0.411533
H367	H	0.859767	0.455133	0.433567
C549	C	0.860867	0.493233	0.387533
H368	H	0.814867	0.502500	0.393033
C550	C	0.902633	0.507667	0.354867
C551	C	0.792667	0.636900	0.651667
C552	C	0.874000	0.537933	0.660500
Ni47	Ni	0.831600	0.584653	0.946477
O185	O	0.747100	0.449873	0.797633
O186	O	0.918300	0.377693	0.790067
O187	O	0.978967	0.450743	0.832433
O188	O	0.688833	0.373267	0.824733
N93	N	0.875967	0.614300	0.898733
N94	N	0.787033	0.548700	0.905033
C553	C	0.862600	0.653100	0.837800
H369	H	0.833400	0.662067	0.814700
C554	C	0.931067	0.666000	0.844567
C555	C	0.972367	0.651533	0.878467
H370	H	0.686733	0.659267	0.883500
C556	C	0.802567	0.506367	0.848033
H371	H	0.831700	0.497000	0.825933
C557	C	0.826767	0.534400	0.873900
H372	H	0.873033	0.543767	0.869300
C558	C	0.837167	0.626967	0.865000
H373	H	0.790700	0.617667	0.859700
C559	C	0.942833	0.625900	0.904567
H374	H	0.971100	0.616100	0.927533
C560	C	0.721500	0.534833	0.911533
H375	H	0.693100	0.544867	0.933567
C561	C	0.694200	0.506767	0.887533
H376	H	0.981533	0.497500	0.893033
C562	C	0.735967	0.492333	0.854867
C563	C	0.959333	0.363100	0.818333
C564	C	0.707333	0.462067	0.827167
Ni48	Ni	0.998267	0.415347	0.779810
O189	O	0.913767	0.550127	0.964300
O190	O	0.751633	0.622307	0.956733
O191	O	0.812300	0.549257	0.999100
O192	O	0.855500	0.626733	0.991400
N95	N	0.709300	0.385700	0.732067
N96	N	0.953700	0.451300	0.738367
C565	C	0.695933	0.346900	0.671133
H377	H	0.666733	0.337933	0.981367
C566	C	0.764400	0.334000	0.677900
C567	C	0.805700	0.348467	0.711800
H378	H	0.853400	0.340733	0.716833
C568	C	0.969233	0.493633	0.681367
H379	H	0.998367	0.503000	0.992600
C569	C	0.993433	0.465600	0.707233
H380	H	0.706367	0.456233	0.702633
C570	C	0.670500	0.373033	0.698333
H381	H	0.957367	0.382333	0.693033
C571	C	0.776167	0.374100	0.737900
H382	H	0.804433	0.383900	0.760867
C572	C	0.888167	0.465167	0.744867
H383	H	0.859767	0.455133	0.766900
C573	C	0.860867	0.493233	0.720867
H384	H	0.814867	0.502500	0.726367
C574	C	0.902633	0.507667	0.688200
C575	C	0.792667	0.636900	0.985000
C576	C	0.874000	0.537933	0.993833
Ni49	Ni	0.831600	0.917987	0.279810
O193	O	0.747100	0.783207	0.130967
O194	O	0.918300	0.711027	0.123400
O195	O	0.978967	0.784077	0.165767
O196	O	0.688833	0.706600	0.158067
N97	N	0.875967	0.947633	0.232067
N98	N	0.787033	0.882033	0.238367
C577	C	0.862600	0.986433	0.171133
H385	H	0.833400	0.995400	0.148033
C578	C	0.931067	0.999333	0.177900
C579	C	0.972367	0.984867	0.211800
H386	H	0.686733	0.992600	0.216833
C580	C	0.802567	0.839700	0.181367
H387	H	0.831700	0.830333	0.159267
C581	C	0.826767	0.867733	0.207233
H388	H	0.873033	0.877100	0.202633
C582	C	0.837167	0.960300	0.198333
H389	H	0.790700	0.951000	0.193033
C583	C	0.942833	0.959233	0.237900
H390	H	0.971100	0.949433	0.260867
C584	C	0.721500	0.868167	0.244867
H391	H	0.693100	0.878200	0.266900
C585	C	0.694200	0.840100	0.220867
H392	H	0.981533	0.830833	0.226367
C586	C	0.735967	0.825667	0.188200
C587	C	0.959333	0.696433	0.151667
C588	C	0.707333	0.795400	0.160500
Ni50	Ni	0.998267	0.748680	0.113143
O197	O	0.913767	0.883460	0.297633
O198	O	0.751633	0.955640	0.290067
O199	O	0.812300	0.882590	0.332433
O200	O	0.855500	0.960067	0.324733
N99	N	0.709300	0.719033	0.065400
N100	N	0.953700	0.784633	0.071700
C589	C	0.695933	0.680233	0.004467
H393	H	0.666733	0.671267	0.314700
C590	C	0.764400	0.667333	0.011233
C591	C	0.805700	0.681800	0.045133
H394	H	0.853400	0.674067	0.050167
C592	C	0.969233	0.826967	0.014700
H395	H	0.998367	0.836333	0.325933
C593	C	0.993433	0.798933	0.040567
H396	H	0.706367	0.789567	0.035967
C594	C	0.670500	0.706367	0.031667
H397	H	0.957367	0.715667	0.026367
C595	C	0.776167	0.707433	0.071233
H398	H	0.804433	0.717233	0.094200
C596	C	0.888167	0.798500	0.078200
H399	H	0.859767	0.788467	0.100233
C597	C	0.860867	0.826567	0.054200
H400	H	0.814867	0.835833	0.059700
C598	C	0.902633	0.841000	0.021533
C599	C	0.792667	0.970233	0.318333
C600	C	0.874000	0.871267	0.327167
Ni51	Ni	0.831600	0.917987	0.613143
O201	O	0.747100	0.783207	0.464300
O202	O	0.918300	0.711027	0.456733
O203	O	0.978967	0.784077	0.499100
O204	O	0.688833	0.706600	0.491400
N101	N	0.875967	0.947633	0.565400
N102	N	0.787033	0.882033	0.571700
C601	C	0.862600	0.986433	0.504467
H401	H	0.833400	0.995400	0.481367
C602	C	0.931067	0.999333	0.511233
C603	C	0.972367	0.984867	0.545133
H402	H	0.686733	0.992600	0.550167
C604	C	0.802567	0.839700	0.514700
H403	H	0.831700	0.830333	0.492600
C605	C	0.826767	0.867733	0.540567
H404	H	0.873033	0.877100	0.535967
C606	C	0.837167	0.960300	0.531667
H405	H	0.790700	0.951000	0.526367
C607	C	0.942833	0.959233	0.571233
H406	H	0.971100	0.949433	0.594200
C608	C	0.721500	0.868167	0.578200
H407	H	0.693100	0.878200	0.600233
C609	C	0.694200	0.840100	0.554200
H408	H	0.981533	0.830833	0.559700
C610	C	0.735967	0.825667	0.521533
C611	C	0.959333	0.696433	0.485000
C612	C	0.707333	0.795400	0.493833
Ni52	Ni	0.998267	0.748680	0.446477
O205	O	0.913767	0.883460	0.630967
O206	O	0.751633	0.955640	0.623400
O207	O	0.812300	0.882590	0.665767
O208	O	0.855500	0.960067	0.658067
N103	N	0.709300	0.719033	0.398733
N104	N	0.953700	0.784633	0.405033
C613	C	0.695933	0.680233	0.337800
H409	H	0.666733	0.671267	0.648033
C614	C	0.764400	0.667333	0.344567
C615	C	0.805700	0.681800	0.378467
H410	H	0.853400	0.674067	0.383500
C616	C	0.969233	0.826967	0.348033
H411	H	0.998367	0.836333	0.659267
C617	C	0.993433	0.798933	0.373900
H412	H	0.706367	0.789567	0.369300
C618	C	0.670500	0.706367	0.365000
H413	H	0.957367	0.715667	0.359700
C619	C	0.776167	0.707433	0.404567
H414	H	0.804433	0.717233	0.427533
C620	C	0.888167	0.798500	0.411533
H415	H	0.859767	0.788467	0.433567
C621	C	0.860867	0.826567	0.387533
H416	H	0.814867	0.835833	0.393033
C622	C	0.902633	0.841000	0.354867
C623	C	0.792667	0.970233	0.651667
C624	C	0.874000	0.871267	0.660500
Ni53	Ni	0.831600	0.917987	0.946477
O209	O	0.747100	0.783207	0.797633
O210	O	0.918300	0.711027	0.790067
O211	O	0.978967	0.784077	0.832433
O212	O	0.688833	0.706600	0.824733
N105	N	0.875967	0.947633	0.898733
N106	N	0.787033	0.882033	0.905033
C625	C	0.862600	0.986433	0.837800
H417	H	0.833400	0.995400	0.814700
C626	C	0.931067	0.999333	0.844567
C627	C	0.972367	0.984867	0.878467
H418	H	0.686733	0.992600	0.883500
C628	C	0.802567	0.839700	0.848033
H419	H	0.831700	0.830333	0.825933
C629	C	0.826767	0.867733	0.873900
H420	H	0.873033	0.877100	0.869300
C630	C	0.837167	0.960300	0.865000
H421	H	0.790700	0.951000	0.859700
C631	C	0.942833	0.959233	0.904567
H422	H	0.971100	0.949433	0.927533
C632	C	0.721500	0.868167	0.911533
H423	H	0.693100	0.878200	0.933567
C633	C	0.694200	0.840100	0.887533
H424	H	0.981533	0.830833	0.893033
C634	C	0.735967	0.825667	0.854867
C635	C	0.959333	0.696433	0.818333
C636	C	0.707333	0.795400	0.827167
Ni54	Ni	0.998267	0.748680	0.779810
O213	O	0.913767	0.883460	0.964300
O214	O	0.751633	0.955640	0.956733
O215	O	0.812300	0.882590	0.999100
O216	O	0.855500	0.960067	0.991400
N107	N	0.709300	0.719033	0.732067
N108	N	0.953700	0.784633	0.738367
C637	C	0.695933	0.680233	0.671133
H425	H	0.666733	0.671267	0.981367
C638	C	0.764400	0.667333	0.677900
C639	C	0.805700	0.681800	0.711800
H426	H	0.853400	0.674067	0.716833
C640	C	0.969233	0.826967	0.681367
H427	H	0.998367	0.836333	0.992600
C641	C	0.993433	0.798933	0.707233
H428	H	0.706367	0.789567	0.702633
C642	C	0.670500	0.706367	0.698333
H429	H	0.957367	0.715667	0.693033
C643	C	0.776167	0.707433	0.737900
H430	H	0.804433	0.717233	0.760867
C644	C	0.888167	0.798500	0.744867
H431	H	0.859767	0.788467	0.766900
C645	C	0.860867	0.826567	0.720867
H432	H	0.814867	0.835833	0.726367
C646	C	0.902633	0.841000	0.688200
C647	C	0.792667	0.970233	0.985000
C648	C	0.874000	0.871267	0.993833
