data_NiPyC2_comp1_Ni_only_PM
_symmetry_space_group_name_H-M	'P1'
_cell_length_a	25.011200
_cell_length_b	50.093600
_cell_length_c	41.107200
_cell_angle_alpha	90.000000
_cell_angle_beta	91.269000
_cell_angle_gamma	90.000000
_symmetry_Int_Tables_number 1

loop_
_symmetry_equiv_pos_as_xyz
'x,y,z'

loop_
_atom_site_label
_atom_site_type_symbol
_atom_site_fract_x
_atom_site_fract_y
_atom_site_fract_z
Ni1	Ni	0.123700	0.188490	0.209858
Ni2	Ni	0.248700	0.061510	0.334858
Ni3	Ni	0.123700	0.188490	0.709858
Ni4	Ni	0.248700	0.061510	0.834858
Ni5	Ni	0.248700	0.311510	0.084858
Ni6	Ni	0.123700	0.438490	0.459858
Ni7	Ni	0.248700	0.311510	0.584858
Ni8	Ni	0.123700	0.438490	0.959858
Ni9	Ni	0.123700	0.688490	0.209858
Ni10	Ni	0.248700	0.561510	0.334858
Ni11	Ni	0.123700	0.688490	0.709858
Ni12	Ni	0.248700	0.561510	0.834858
Ni13	Ni	0.248700	0.811510	0.084858
Ni14	Ni	0.123700	0.938490	0.459858
Ni15	Ni	0.248700	0.811510	0.584858
Ni16	Ni	0.123700	0.938490	0.959858
Ni17	Ni	0.498700	0.061510	0.084858
Ni18	Ni	0.373700	0.188490	0.459858
Ni19	Ni	0.498700	0.061510	0.584858
Ni20	Ni	0.373700	0.188490	0.959858
Ni21	Ni	0.373700	0.438490	0.209858
Ni22	Ni	0.498700	0.311510	0.334858
Ni23	Ni	0.373700	0.438490	0.709858
Ni24	Ni	0.498700	0.311510	0.834858
Ni25	Ni	0.498700	0.561510	0.084858
Ni26	Ni	0.373700	0.688490	0.459858
Ni27	Ni	0.498700	0.561510	0.584858
Ni28	Ni	0.373700	0.688490	0.959858
Ni29	Ni	0.373700	0.938490	0.209858
Ni30	Ni	0.498700	0.811510	0.334858
Ni31	Ni	0.373700	0.938490	0.709858
Ni32	Ni	0.498700	0.811510	0.834858
Ni33	Ni	0.623700	0.188490	0.209858
Ni34	Ni	0.748700	0.061510	0.334858
Ni35	Ni	0.623700	0.188490	0.709858
Ni36	Ni	0.748700	0.061510	0.834858
Ni37	Ni	0.748700	0.311510	0.084858
Ni38	Ni	0.623700	0.438490	0.459858
Ni39	Ni	0.748700	0.311510	0.584858
Ni40	Ni	0.623700	0.438490	0.959858
Ni41	Ni	0.623700	0.688490	0.209858
Ni42	Ni	0.748700	0.561510	0.334858
Ni43	Ni	0.623700	0.688490	0.709858
Ni44	Ni	0.748700	0.561510	0.834858
Ni45	Ni	0.748700	0.811510	0.084858
Ni46	Ni	0.623700	0.938490	0.459858
Ni47	Ni	0.748700	0.811510	0.584858
Ni48	Ni	0.623700	0.938490	0.959858
Ni49	Ni	0.998700	0.061510	0.084858
Ni50	Ni	0.873700	0.188490	0.459858
Ni51	Ni	0.998700	0.061510	0.584858
Ni52	Ni	0.873700	0.188490	0.959858
Ni53	Ni	0.873700	0.438490	0.209858
Ni54	Ni	0.998700	0.311510	0.334858
Ni55	Ni	0.873700	0.438490	0.709858
Ni56	Ni	0.998700	0.311510	0.834858
Ni57	Ni	0.998700	0.561510	0.084858
Ni58	Ni	0.873700	0.688490	0.459858
Ni59	Ni	0.998700	0.561510	0.584858
Ni60	Ni	0.873700	0.688490	0.959858
Ni61	Ni	0.873700	0.938490	0.209858
Ni62	Ni	0.998700	0.811510	0.334858
Ni63	Ni	0.873700	0.938490	0.709858
Ni64	Ni	0.998700	0.811510	0.834858

loop_
_geom_bond_atom_site_label_1
_geom_bond_atom_site_label_2
_geom_bond_distance
Ni1	Ni2	0.21766
Ni1	Ni5	0.21537
Ni2	Ni18	0.21766
Ni3	Ni4	0.21766
Ni3	Ni7	0.21537
Ni4	Ni20	0.21766
Ni5	Ni21	0.21766
Ni6	Ni7	0.21766
Ni6	Ni10	0.21537
Ni7	Ni18	0.21537
Ni7	Ni23	0.21766
Ni8	Ni12	0.21537
Ni9	Ni10	0.21766
Ni9	Ni13	0.21537
Ni10	Ni21	0.21537
Ni10	Ni26	0.21766
Ni11	Ni12	0.21766
Ni11	Ni15	0.21537
Ni12	Ni23	0.21537
Ni12	Ni28	0.21766
Ni13	Ni29	0.21766
Ni14	Ni15	0.21766
Ni15	Ni26	0.21537
Ni15	Ni31	0.21766
Ni17	Ni33	0.21766
Ni18	Ni19	0.21766
Ni18	Ni22	0.21537
Ni19	Ni35	0.21766
Ni20	Ni24	0.21537
Ni21	Ni22	0.21766
Ni21	Ni25	0.21537
Ni22	Ni33	0.21537
Ni22	Ni38	0.21766
Ni23	Ni24	0.21766
Ni23	Ni27	0.21537
Ni24	Ni35	0.21537
Ni24	Ni40	0.21766
Ni25	Ni41	0.21766
Ni26	Ni27	0.21766
Ni26	Ni30	0.21537
Ni27	Ni38	0.21537
Ni27	Ni43	0.21766
Ni28	Ni32	0.21537
Ni29	Ni30	0.21766
Ni30	Ni41	0.21537
Ni30	Ni46	0.21766
Ni31	Ni32	0.21766
Ni32	Ni43	0.21537
Ni32	Ni48	0.21766
Ni33	Ni34	0.21766
Ni33	Ni37	0.21537
Ni34	Ni50	0.21766
Ni35	Ni36	0.21766
Ni35	Ni39	0.21537
Ni36	Ni52	0.21766
Ni37	Ni53	0.21766
Ni38	Ni39	0.21766
Ni38	Ni42	0.21537
Ni39	Ni50	0.21537
Ni39	Ni55	0.21766
Ni40	Ni44	0.21537
Ni41	Ni42	0.21766
Ni41	Ni45	0.21537
Ni42	Ni53	0.21537
Ni42	Ni58	0.21766
Ni43	Ni44	0.21766
Ni43	Ni47	0.21537
Ni44	Ni55	0.21537
Ni44	Ni60	0.21766
Ni45	Ni61	0.21766
Ni46	Ni47	0.21766
Ni47	Ni58	0.21537
Ni47	Ni63	0.21766
Ni50	Ni51	0.21766
Ni50	Ni54	0.21537
Ni52	Ni56	0.21537
Ni53	Ni54	0.21766
Ni53	Ni57	0.21537
Ni55	Ni56	0.21766
Ni55	Ni59	0.21537
Ni58	Ni59	0.21766
Ni58	Ni62	0.21537
Ni60	Ni64	0.21537
Ni61	Ni62	0.21766
Ni63	Ni64	0.21766
