data_NiPyC2_comp1_PM
_symmetry_space_group_name_H-M	'P1'
_cell_length_a	25.011200
_cell_length_b	50.093600
_cell_length_c	41.107200
_cell_angle_alpha	90.000000
_cell_angle_beta	91.269000
_cell_angle_gamma	90.000000
_symmetry_Int_Tables_number 1

loop_
_symmetry_equiv_pos_as_xyz
'x,y,z'

loop_
_atom_site_label
_atom_site_type_symbol
_atom_site_fract_x
_atom_site_fract_y
_atom_site_fract_z
Ni1	Ni	0.123700	0.188490	0.209858
O1	O	0.060325	0.087405	0.098225
O2	O	0.016625	0.029950	0.118550
N1	N	0.156975	0.210725	0.174050
N2	N	0.090275	0.161525	0.178775
C1	C	0.146950	0.239825	0.128350
H1	H	0.125050	0.246550	0.111025
C2	C	0.198300	0.249500	0.133425
C3	C	0.229275	0.238650	0.158850
C4	C	0.101925	0.129775	0.136025
H2	H	0.123775	0.122750	0.119450
C5	C	0.120075	0.150800	0.155425
H3	H	0.154775	0.157825	0.151975
C6	C	0.127875	0.220225	0.148750
H4	H	0.093025	0.213250	0.144775
C7	C	0.207125	0.219425	0.178425
H5	H	0.228325	0.212075	0.195650
C8	C	0.041125	0.151125	0.183650
H6	H	0.019825	0.158650	0.200175
C9	C	0.020650	0.130075	0.165650
C10	C	0.051975	0.119250	0.141150
C11	C	0.030500	0.096550	0.120375
O3	O	0.185325	0.162595	0.223225
O4	O	0.063725	0.216730	0.217550
O5	O	0.109225	0.161942	0.249325
O6	O	0.141625	0.220050	0.243550
N3	N	0.031975	0.039275	0.049050
C12	C	0.021950	0.010175	0.003350
C13	C	0.073300	0.000500	0.008425
C14	C	0.104275	0.011350	0.033850
H7	H	0.140050	0.005550	0.037625
H8	H	0.248775	0.127250	0.244450
H9	H	0.029775	0.092175	0.026975
C15	C	0.002875	0.029775	0.023750
C16	C	0.082125	0.030575	0.053425
H10	H	0.103325	0.037925	0.070650
C17	C	0.094500	0.227675	0.238750
C18	C	0.155500	0.153450	0.245375
O7	O	0.188725	0.033270	0.342550
O8	O	0.234225	0.088057	0.374325
H11	H	0.015050	0.244450	0.412625
H12	H	0.236150	0.123125	0.419775
C19	C	0.219500	0.022325	0.363750
Ni2	Ni	0.248700	0.061510	0.334858
N4	N	0.215275	0.088475	0.303775
H13	H	0.000050	0.003450	0.486025
C20	C	0.226925	0.120225	0.261025
C21	C	0.245075	0.099200	0.280425
H14	H	0.218025	0.036750	0.269775
C22	C	0.166125	0.098875	0.308650
H15	H	0.144825	0.091350	0.325175
C23	C	0.145650	0.119925	0.290650
H16	H	0.111150	0.126875	0.294775
C24	C	0.176975	0.130750	0.266150
Ni3	Ni	0.123700	0.188490	0.709858
O9	O	0.060325	0.087405	0.598225
O10	O	0.016625	0.029950	0.618550
N5	N	0.156975	0.210725	0.674050
N6	N	0.090275	0.161525	0.678775
C25	C	0.146950	0.239825	0.628350
H17	H	0.125050	0.246550	0.611025
C26	C	0.198300	0.249500	0.633425
C27	C	0.229275	0.238650	0.658850
C28	C	0.101925	0.129775	0.636025
H18	H	0.123775	0.122750	0.619450
C29	C	0.120075	0.150800	0.655425
H19	H	0.154775	0.157825	0.651975
C30	C	0.127875	0.220225	0.648750
H20	H	0.093025	0.213250	0.644775
C31	C	0.207125	0.219425	0.678425
H21	H	0.228325	0.212075	0.695650
C32	C	0.041125	0.151125	0.683650
H22	H	0.019825	0.158650	0.700175
C33	C	0.020650	0.130075	0.665650
C34	C	0.051975	0.119250	0.641150
C35	C	0.030500	0.096550	0.620375
O11	O	0.185325	0.162595	0.723225
O12	O	0.063725	0.216730	0.717550
O13	O	0.109225	0.161942	0.749325
O14	O	0.141625	0.220050	0.743550
N7	N	0.031975	0.039275	0.549050
C36	C	0.021950	0.010175	0.503350
C37	C	0.073300	0.000500	0.508425
C38	C	0.104275	0.011350	0.533850
H23	H	0.140050	0.005550	0.537625
H24	H	0.248775	0.127250	0.744450
H25	H	0.029775	0.092175	0.526975
C39	C	0.002875	0.029775	0.523750
C40	C	0.082125	0.030575	0.553425
H26	H	0.103325	0.037925	0.570650
C41	C	0.094500	0.227675	0.738750
C42	C	0.155500	0.153450	0.745375
O15	O	0.188725	0.033270	0.842550
O16	O	0.234225	0.088057	0.874325
H27	H	0.015050	0.244450	0.912625
H28	H	0.236150	0.123125	0.919775
C43	C	0.219500	0.022325	0.863750
Ni4	Ni	0.248700	0.061510	0.834858
N8	N	0.215275	0.088475	0.803775
H29	H	0.000050	0.003450	0.986025
C44	C	0.226925	0.120225	0.761025
C45	C	0.245075	0.099200	0.780425
H30	H	0.218025	0.036750	0.769775
C46	C	0.166125	0.098875	0.808650
H31	H	0.144825	0.091350	0.825175
C47	C	0.145650	0.119925	0.790650
H32	H	0.111150	0.126875	0.794775
C48	C	0.176975	0.130750	0.766150
O17	O	0.188725	0.283270	0.092550
O18	O	0.234225	0.338058	0.124325
H33	H	0.015050	0.494450	0.162625
H34	H	0.236150	0.373125	0.169775
C49	C	0.219500	0.272325	0.113750
Ni5	Ni	0.248700	0.311510	0.084858
N9	N	0.215275	0.338475	0.053775
H35	H	0.000050	0.253450	0.236025
C50	C	0.226925	0.370225	0.011025
C51	C	0.245075	0.349200	0.030425
H36	H	0.218025	0.286750	0.019775
C52	C	0.166125	0.348875	0.058650
H37	H	0.144825	0.341350	0.075175
C53	C	0.145650	0.369925	0.040650
H38	H	0.111150	0.376875	0.044775
C54	C	0.176975	0.380750	0.016150
Ni6	Ni	0.123700	0.438490	0.459858
O19	O	0.060325	0.337405	0.348225
O20	O	0.016625	0.279950	0.368550
N10	N	0.156975	0.460725	0.424050
N11	N	0.090275	0.411525	0.428775
C55	C	0.146950	0.489825	0.378350
H39	H	0.125050	0.496550	0.361025
C56	C	0.198300	0.499500	0.383425
C57	C	0.229275	0.488650	0.408850
C58	C	0.101925	0.379775	0.386025
H40	H	0.123775	0.372750	0.369450
C59	C	0.120075	0.400800	0.405425
H41	H	0.154775	0.407825	0.401975
C60	C	0.127875	0.470225	0.398750
H42	H	0.093025	0.463250	0.394775
C61	C	0.207125	0.469425	0.428425
H43	H	0.228325	0.462075	0.445650
C62	C	0.041125	0.401125	0.433650
H44	H	0.019825	0.408650	0.450175
C63	C	0.020650	0.380075	0.415650
C64	C	0.051975	0.369250	0.391150
C65	C	0.030500	0.346550	0.370375
O21	O	0.185325	0.412595	0.473225
O22	O	0.063725	0.466730	0.467550
O23	O	0.109225	0.411942	0.499325
O24	O	0.141625	0.470050	0.493550
N12	N	0.031975	0.289275	0.299050
C66	C	0.021950	0.260175	0.253350
C67	C	0.073300	0.250500	0.258425
C68	C	0.104275	0.261350	0.283850
H45	H	0.140050	0.255550	0.287625
H46	H	0.248775	0.377250	0.494450
H47	H	0.029775	0.342175	0.276975
C69	C	0.002875	0.279775	0.273750
C70	C	0.082125	0.280575	0.303425
H48	H	0.103325	0.287925	0.320650
C71	C	0.094500	0.477675	0.488750
C72	C	0.155500	0.403450	0.495375
O25	O	0.188725	0.283270	0.592550
O26	O	0.234225	0.338058	0.624325
H49	H	0.015050	0.494450	0.662625
H50	H	0.236150	0.373125	0.669775
C73	C	0.219500	0.272325	0.613750
Ni7	Ni	0.248700	0.311510	0.584858
N13	N	0.215275	0.338475	0.553775
H51	H	0.000050	0.253450	0.736025
C74	C	0.226925	0.370225	0.511025
C75	C	0.245075	0.349200	0.530425
H52	H	0.218025	0.286750	0.519775
C76	C	0.166125	0.348875	0.558650
H53	H	0.144825	0.341350	0.575175
C77	C	0.145650	0.369925	0.540650
H54	H	0.111150	0.376875	0.544775
C78	C	0.176975	0.380750	0.516150
Ni8	Ni	0.123700	0.438490	0.959858
O27	O	0.060325	0.337405	0.848225
O28	O	0.016625	0.279950	0.868550
N14	N	0.156975	0.460725	0.924050
N15	N	0.090275	0.411525	0.928775
C79	C	0.146950	0.489825	0.878350
H55	H	0.125050	0.496550	0.861025
C80	C	0.198300	0.499500	0.883425
C81	C	0.229275	0.488650	0.908850
C82	C	0.101925	0.379775	0.886025
H56	H	0.123775	0.372750	0.869450
C83	C	0.120075	0.400800	0.905425
H57	H	0.154775	0.407825	0.901975
C84	C	0.127875	0.470225	0.898750
H58	H	0.093025	0.463250	0.894775
C85	C	0.207125	0.469425	0.928425
H59	H	0.228325	0.462075	0.945650
C86	C	0.041125	0.401125	0.933650
H60	H	0.019825	0.408650	0.950175
C87	C	0.020650	0.380075	0.915650
C88	C	0.051975	0.369250	0.891150
C89	C	0.030500	0.346550	0.870375
O29	O	0.185325	0.412595	0.973225
O30	O	0.063725	0.466730	0.967550
O31	O	0.109225	0.411942	0.999325
O32	O	0.141625	0.470050	0.993550
N16	N	0.031975	0.289275	0.799050
C90	C	0.021950	0.260175	0.753350
C91	C	0.073300	0.250500	0.758425
C92	C	0.104275	0.261350	0.783850
H61	H	0.140050	0.255550	0.787625
H62	H	0.248775	0.377250	0.994450
H63	H	0.029775	0.342175	0.776975
C93	C	0.002875	0.279775	0.773750
C94	C	0.082125	0.280575	0.803425
H64	H	0.103325	0.287925	0.820650
C95	C	0.094500	0.477675	0.988750
C96	C	0.155500	0.403450	0.995375
Ni9	Ni	0.123700	0.688490	0.209858
O33	O	0.060325	0.587405	0.098225
O34	O	0.016625	0.529950	0.118550
N17	N	0.156975	0.710725	0.174050
N18	N	0.090275	0.661525	0.178775
C97	C	0.146950	0.739825	0.128350
H65	H	0.125050	0.746550	0.111025
C98	C	0.198300	0.749500	0.133425
C99	C	0.229275	0.738650	0.158850
C100	C	0.101925	0.629775	0.136025
H66	H	0.123775	0.622750	0.119450
C101	C	0.120075	0.650800	0.155425
H67	H	0.154775	0.657825	0.151975
C102	C	0.127875	0.720225	0.148750
H68	H	0.093025	0.713250	0.144775
C103	C	0.207125	0.719425	0.178425
H69	H	0.228325	0.712075	0.195650
C104	C	0.041125	0.651125	0.183650
H70	H	0.019825	0.658650	0.200175
C105	C	0.020650	0.630075	0.165650
C106	C	0.051975	0.619250	0.141150
C107	C	0.030500	0.596550	0.120375
O35	O	0.185325	0.662595	0.223225
O36	O	0.063725	0.716730	0.217550
O37	O	0.109225	0.661942	0.249325
O38	O	0.141625	0.720050	0.243550
N19	N	0.031975	0.539275	0.049050
C108	C	0.021950	0.510175	0.003350
C109	C	0.073300	0.500500	0.008425
C110	C	0.104275	0.511350	0.033850
H71	H	0.140050	0.505550	0.037625
H72	H	0.248775	0.627250	0.244450
H73	H	0.029775	0.592175	0.026975
C111	C	0.002875	0.529775	0.023750
C112	C	0.082125	0.530575	0.053425
H74	H	0.103325	0.537925	0.070650
C113	C	0.094500	0.727675	0.238750
C114	C	0.155500	0.653450	0.245375
O39	O	0.188725	0.533270	0.342550
O40	O	0.234225	0.588058	0.374325
H75	H	0.015050	0.744450	0.412625
H76	H	0.236150	0.623125	0.419775
C115	C	0.219500	0.522325	0.363750
Ni10	Ni	0.248700	0.561510	0.334858
N20	N	0.215275	0.588475	0.303775
H77	H	0.000050	0.503450	0.486025
C116	C	0.226925	0.620225	0.261025
C117	C	0.245075	0.599200	0.280425
H78	H	0.218025	0.536750	0.269775
C118	C	0.166125	0.598875	0.308650
H79	H	0.144825	0.591350	0.325175
C119	C	0.145650	0.619925	0.290650
H80	H	0.111150	0.626875	0.294775
C120	C	0.176975	0.630750	0.266150
Ni11	Ni	0.123700	0.688490	0.709858
O41	O	0.060325	0.587405	0.598225
O42	O	0.016625	0.529950	0.618550
N21	N	0.156975	0.710725	0.674050
N22	N	0.090275	0.661525	0.678775
C121	C	0.146950	0.739825	0.628350
H81	H	0.125050	0.746550	0.611025
C122	C	0.198300	0.749500	0.633425
C123	C	0.229275	0.738650	0.658850
C124	C	0.101925	0.629775	0.636025
H82	H	0.123775	0.622750	0.619450
C125	C	0.120075	0.650800	0.655425
H83	H	0.154775	0.657825	0.651975
C126	C	0.127875	0.720225	0.648750
H84	H	0.093025	0.713250	0.644775
C127	C	0.207125	0.719425	0.678425
H85	H	0.228325	0.712075	0.695650
C128	C	0.041125	0.651125	0.683650
H86	H	0.019825	0.658650	0.700175
C129	C	0.020650	0.630075	0.665650
C130	C	0.051975	0.619250	0.641150
C131	C	0.030500	0.596550	0.620375
O43	O	0.185325	0.662595	0.723225
O44	O	0.063725	0.716730	0.717550
O45	O	0.109225	0.661942	0.749325
O46	O	0.141625	0.720050	0.743550
N23	N	0.031975	0.539275	0.549050
C132	C	0.021950	0.510175	0.503350
C133	C	0.073300	0.500500	0.508425
C134	C	0.104275	0.511350	0.533850
H87	H	0.140050	0.505550	0.537625
H88	H	0.248775	0.627250	0.744450
H89	H	0.029775	0.592175	0.526975
C135	C	0.002875	0.529775	0.523750
C136	C	0.082125	0.530575	0.553425
H90	H	0.103325	0.537925	0.570650
C137	C	0.094500	0.727675	0.738750
C138	C	0.155500	0.653450	0.745375
O47	O	0.188725	0.533270	0.842550
O48	O	0.234225	0.588058	0.874325
H91	H	0.015050	0.744450	0.912625
H92	H	0.236150	0.623125	0.919775
C139	C	0.219500	0.522325	0.863750
Ni12	Ni	0.248700	0.561510	0.834858
N24	N	0.215275	0.588475	0.803775
H93	H	0.000050	0.503450	0.986025
C140	C	0.226925	0.620225	0.761025
C141	C	0.245075	0.599200	0.780425
H94	H	0.218025	0.536750	0.769775
C142	C	0.166125	0.598875	0.808650
H95	H	0.144825	0.591350	0.825175
C143	C	0.145650	0.619925	0.790650
H96	H	0.111150	0.626875	0.794775
C144	C	0.176975	0.630750	0.766150
O49	O	0.188725	0.783270	0.092550
O50	O	0.234225	0.838058	0.124325
H97	H	0.015050	0.994450	0.162625
H98	H	0.236150	0.873125	0.169775
C145	C	0.219500	0.772325	0.113750
Ni13	Ni	0.248700	0.811510	0.084858
N25	N	0.215275	0.838475	0.053775
H99	H	0.000050	0.753450	0.236025
C146	C	0.226925	0.870225	0.011025
C147	C	0.245075	0.849200	0.030425
H100	H	0.218025	0.786750	0.019775
C148	C	0.166125	0.848875	0.058650
H101	H	0.144825	0.841350	0.075175
C149	C	0.145650	0.869925	0.040650
H102	H	0.111150	0.876875	0.044775
C150	C	0.176975	0.880750	0.016150
Ni14	Ni	0.123700	0.938490	0.459858
O51	O	0.060325	0.837405	0.348225
O52	O	0.016625	0.779950	0.368550
N26	N	0.156975	0.960725	0.424050
N27	N	0.090275	0.911525	0.428775
C151	C	0.146950	0.989825	0.378350
H103	H	0.125050	0.996550	0.361025
C152	C	0.198300	0.999500	0.383425
C153	C	0.229275	0.988650	0.408850
C154	C	0.101925	0.879775	0.386025
H104	H	0.123775	0.872750	0.369450
C155	C	0.120075	0.900800	0.405425
H105	H	0.154775	0.907825	0.401975
C156	C	0.127875	0.970225	0.398750
H106	H	0.093025	0.963250	0.394775
C157	C	0.207125	0.969425	0.428425
H107	H	0.228325	0.962075	0.445650
C158	C	0.041125	0.901125	0.433650
H108	H	0.019825	0.908650	0.450175
C159	C	0.020650	0.880075	0.415650
C160	C	0.051975	0.869250	0.391150
C161	C	0.030500	0.846550	0.370375
O53	O	0.185325	0.912595	0.473225
O54	O	0.063725	0.966730	0.467550
O55	O	0.109225	0.911942	0.499325
O56	O	0.141625	0.970050	0.493550
N28	N	0.031975	0.789275	0.299050
C162	C	0.021950	0.760175	0.253350
C163	C	0.073300	0.750500	0.258425
C164	C	0.104275	0.761350	0.283850
H109	H	0.140050	0.755550	0.287625
H110	H	0.248775	0.877250	0.494450
H111	H	0.029775	0.842175	0.276975
C165	C	0.002875	0.779775	0.273750
C166	C	0.082125	0.780575	0.303425
H112	H	0.103325	0.787925	0.320650
C167	C	0.094500	0.977675	0.488750
C168	C	0.155500	0.903450	0.495375
O57	O	0.188725	0.783270	0.592550
O58	O	0.234225	0.838058	0.624325
H113	H	0.015050	0.994450	0.662625
H114	H	0.236150	0.873125	0.669775
C169	C	0.219500	0.772325	0.613750
Ni15	Ni	0.248700	0.811510	0.584858
N29	N	0.215275	0.838475	0.553775
H115	H	0.000050	0.753450	0.736025
C170	C	0.226925	0.870225	0.511025
C171	C	0.245075	0.849200	0.530425
H116	H	0.218025	0.786750	0.519775
C172	C	0.166125	0.848875	0.558650
H117	H	0.144825	0.841350	0.575175
C173	C	0.145650	0.869925	0.540650
H118	H	0.111150	0.876875	0.544775
C174	C	0.176975	0.880750	0.516150
Ni16	Ni	0.123700	0.938490	0.959858
O59	O	0.060325	0.837405	0.848225
O60	O	0.016625	0.779950	0.868550
N30	N	0.156975	0.960725	0.924050
N31	N	0.090275	0.911525	0.928775
C175	C	0.146950	0.989825	0.878350
H119	H	0.125050	0.996550	0.861025
C176	C	0.198300	0.999500	0.883425
C177	C	0.229275	0.988650	0.908850
C178	C	0.101925	0.879775	0.886025
H120	H	0.123775	0.872750	0.869450
C179	C	0.120075	0.900800	0.905425
H121	H	0.154775	0.907825	0.901975
C180	C	0.127875	0.970225	0.898750
H122	H	0.093025	0.963250	0.894775
C181	C	0.207125	0.969425	0.928425
H123	H	0.228325	0.962075	0.945650
C182	C	0.041125	0.901125	0.933650
H124	H	0.019825	0.908650	0.950175
C183	C	0.020650	0.880075	0.915650
C184	C	0.051975	0.869250	0.891150
C185	C	0.030500	0.846550	0.870375
O61	O	0.185325	0.912595	0.973225
O62	O	0.063725	0.966730	0.967550
O63	O	0.109225	0.911942	0.999325
O64	O	0.141625	0.970050	0.993550
N32	N	0.031975	0.789275	0.799050
C186	C	0.021950	0.760175	0.753350
C187	C	0.073300	0.750500	0.758425
C188	C	0.104275	0.761350	0.783850
H125	H	0.140050	0.755550	0.787625
H126	H	0.248775	0.877250	0.994450
H127	H	0.029775	0.842175	0.776975
C189	C	0.002875	0.779775	0.773750
C190	C	0.082125	0.780575	0.803425
H128	H	0.103325	0.787925	0.820650
C191	C	0.094500	0.977675	0.988750
C192	C	0.155500	0.903450	0.995375
O65	O	0.438725	0.033270	0.092550
O66	O	0.484225	0.088057	0.124325
H129	H	0.265050	0.244450	0.162625
H130	H	0.486150	0.123125	0.169775
C193	C	0.469500	0.022325	0.113750
Ni17	Ni	0.498700	0.061510	0.084858
N33	N	0.465275	0.088475	0.053775
H131	H	0.250050	0.003450	0.236025
C194	C	0.476925	0.120225	0.011025
C195	C	0.495075	0.099200	0.030425
H132	H	0.468025	0.036750	0.019775
C196	C	0.416125	0.098875	0.058650
H133	H	0.394825	0.091350	0.075175
C197	C	0.395650	0.119925	0.040650
H134	H	0.361150	0.126875	0.044775
C198	C	0.426975	0.130750	0.016150
Ni18	Ni	0.373700	0.188490	0.459858
O67	O	0.310325	0.087405	0.348225
O68	O	0.266625	0.029950	0.368550
N34	N	0.406975	0.210725	0.424050
N35	N	0.340275	0.161525	0.428775
C199	C	0.396950	0.239825	0.378350
H135	H	0.375050	0.246550	0.361025
C200	C	0.448300	0.249500	0.383425
C201	C	0.479275	0.238650	0.408850
C202	C	0.351925	0.129775	0.386025
H136	H	0.373775	0.122750	0.369450
C203	C	0.370075	0.150800	0.405425
H137	H	0.404775	0.157825	0.401975
C204	C	0.377875	0.220225	0.398750
H138	H	0.343025	0.213250	0.394775
C205	C	0.457125	0.219425	0.428425
H139	H	0.478325	0.212075	0.445650
C206	C	0.291125	0.151125	0.433650
H140	H	0.269825	0.158650	0.450175
C207	C	0.270650	0.130075	0.415650
C208	C	0.301975	0.119250	0.391150
C209	C	0.280500	0.096550	0.370375
O69	O	0.435325	0.162595	0.473225
O70	O	0.313725	0.216730	0.467550
O71	O	0.359225	0.161942	0.499325
O72	O	0.391625	0.220050	0.493550
N36	N	0.281975	0.039275	0.299050
C210	C	0.271950	0.010175	0.253350
C211	C	0.323300	0.000500	0.258425
C212	C	0.354275	0.011350	0.283850
H141	H	0.390050	0.005550	0.287625
H142	H	0.498775	0.127250	0.494450
H143	H	0.279775	0.092175	0.276975
C213	C	0.252875	0.029775	0.273750
C214	C	0.332125	0.030575	0.303425
H144	H	0.353325	0.037925	0.320650
C215	C	0.344500	0.227675	0.488750
C216	C	0.405500	0.153450	0.495375
O73	O	0.438725	0.033270	0.592550
O74	O	0.484225	0.088057	0.624325
H145	H	0.265050	0.244450	0.662625
H146	H	0.486150	0.123125	0.669775
C217	C	0.469500	0.022325	0.613750
Ni19	Ni	0.498700	0.061510	0.584858
N37	N	0.465275	0.088475	0.553775
H147	H	0.250050	0.003450	0.736025
C218	C	0.476925	0.120225	0.511025
C219	C	0.495075	0.099200	0.530425
H148	H	0.468025	0.036750	0.519775
C220	C	0.416125	0.098875	0.558650
H149	H	0.394825	0.091350	0.575175
C221	C	0.395650	0.119925	0.540650
H150	H	0.361150	0.126875	0.544775
C222	C	0.426975	0.130750	0.516150
Ni20	Ni	0.373700	0.188490	0.959858
O75	O	0.310325	0.087405	0.848225
O76	O	0.266625	0.029950	0.868550
N38	N	0.406975	0.210725	0.924050
N39	N	0.340275	0.161525	0.928775
C223	C	0.396950	0.239825	0.878350
H151	H	0.375050	0.246550	0.861025
C224	C	0.448300	0.249500	0.883425
C225	C	0.479275	0.238650	0.908850
C226	C	0.351925	0.129775	0.886025
H152	H	0.373775	0.122750	0.869450
C227	C	0.370075	0.150800	0.905425
H153	H	0.404775	0.157825	0.901975
C228	C	0.377875	0.220225	0.898750
H154	H	0.343025	0.213250	0.894775
C229	C	0.457125	0.219425	0.928425
H155	H	0.478325	0.212075	0.945650
C230	C	0.291125	0.151125	0.933650
H156	H	0.269825	0.158650	0.950175
C231	C	0.270650	0.130075	0.915650
C232	C	0.301975	0.119250	0.891150
C233	C	0.280500	0.096550	0.870375
O77	O	0.435325	0.162595	0.973225
O78	O	0.313725	0.216730	0.967550
O79	O	0.359225	0.161942	0.999325
O80	O	0.391625	0.220050	0.993550
N40	N	0.281975	0.039275	0.799050
C234	C	0.271950	0.010175	0.753350
C235	C	0.323300	0.000500	0.758425
C236	C	0.354275	0.011350	0.783850
H157	H	0.390050	0.005550	0.787625
H158	H	0.498775	0.127250	0.994450
H159	H	0.279775	0.092175	0.776975
C237	C	0.252875	0.029775	0.773750
C238	C	0.332125	0.030575	0.803425
H160	H	0.353325	0.037925	0.820650
C239	C	0.344500	0.227675	0.988750
C240	C	0.405500	0.153450	0.995375
Ni21	Ni	0.373700	0.438490	0.209858
O81	O	0.310325	0.337405	0.098225
O82	O	0.266625	0.279950	0.118550
N41	N	0.406975	0.460725	0.174050
N42	N	0.340275	0.411525	0.178775
C241	C	0.396950	0.489825	0.128350
H161	H	0.375050	0.496550	0.111025
C242	C	0.448300	0.499500	0.133425
C243	C	0.479275	0.488650	0.158850
C244	C	0.351925	0.379775	0.136025
H162	H	0.373775	0.372750	0.119450
C245	C	0.370075	0.400800	0.155425
H163	H	0.404775	0.407825	0.151975
C246	C	0.377875	0.470225	0.148750
H164	H	0.343025	0.463250	0.144775
C247	C	0.457125	0.469425	0.178425
H165	H	0.478325	0.462075	0.195650
C248	C	0.291125	0.401125	0.183650
H166	H	0.269825	0.408650	0.200175
C249	C	0.270650	0.380075	0.165650
C250	C	0.301975	0.369250	0.141150
C251	C	0.280500	0.346550	0.120375
O83	O	0.435325	0.412595	0.223225
O84	O	0.313725	0.466730	0.217550
O85	O	0.359225	0.411942	0.249325
O86	O	0.391625	0.470050	0.243550
N43	N	0.281975	0.289275	0.049050
C252	C	0.271950	0.260175	0.003350
C253	C	0.323300	0.250500	0.008425
C254	C	0.354275	0.261350	0.033850
H167	H	0.390050	0.255550	0.037625
H168	H	0.498775	0.377250	0.244450
H169	H	0.279775	0.342175	0.026975
C255	C	0.252875	0.279775	0.023750
C256	C	0.332125	0.280575	0.053425
H170	H	0.353325	0.287925	0.070650
C257	C	0.344500	0.477675	0.238750
C258	C	0.405500	0.403450	0.245375
O87	O	0.438725	0.283270	0.342550
O88	O	0.484225	0.338058	0.374325
H171	H	0.265050	0.494450	0.412625
H172	H	0.486150	0.373125	0.419775
C259	C	0.469500	0.272325	0.363750
Ni22	Ni	0.498700	0.311510	0.334858
N44	N	0.465275	0.338475	0.303775
H173	H	0.250050	0.253450	0.486025
C260	C	0.476925	0.370225	0.261025
C261	C	0.495075	0.349200	0.280425
H174	H	0.468025	0.286750	0.269775
C262	C	0.416125	0.348875	0.308650
H175	H	0.394825	0.341350	0.325175
C263	C	0.395650	0.369925	0.290650
H176	H	0.361150	0.376875	0.294775
C264	C	0.426975	0.380750	0.266150
Ni23	Ni	0.373700	0.438490	0.709858
O89	O	0.310325	0.337405	0.598225
O90	O	0.266625	0.279950	0.618550
N45	N	0.406975	0.460725	0.674050
N46	N	0.340275	0.411525	0.678775
C265	C	0.396950	0.489825	0.628350
H177	H	0.375050	0.496550	0.611025
C266	C	0.448300	0.499500	0.633425
C267	C	0.479275	0.488650	0.658850
C268	C	0.351925	0.379775	0.636025
H178	H	0.373775	0.372750	0.619450
C269	C	0.370075	0.400800	0.655425
H179	H	0.404775	0.407825	0.651975
C270	C	0.377875	0.470225	0.648750
H180	H	0.343025	0.463250	0.644775
C271	C	0.457125	0.469425	0.678425
H181	H	0.478325	0.462075	0.695650
C272	C	0.291125	0.401125	0.683650
H182	H	0.269825	0.408650	0.700175
C273	C	0.270650	0.380075	0.665650
C274	C	0.301975	0.369250	0.641150
C275	C	0.280500	0.346550	0.620375
O91	O	0.435325	0.412595	0.723225
O92	O	0.313725	0.466730	0.717550
O93	O	0.359225	0.411942	0.749325
O94	O	0.391625	0.470050	0.743550
N47	N	0.281975	0.289275	0.549050
C276	C	0.271950	0.260175	0.503350
C277	C	0.323300	0.250500	0.508425
C278	C	0.354275	0.261350	0.533850
H183	H	0.390050	0.255550	0.537625
H184	H	0.498775	0.377250	0.744450
H185	H	0.279775	0.342175	0.526975
C279	C	0.252875	0.279775	0.523750
C280	C	0.332125	0.280575	0.553425
H186	H	0.353325	0.287925	0.570650
C281	C	0.344500	0.477675	0.738750
C282	C	0.405500	0.403450	0.745375
O95	O	0.438725	0.283270	0.842550
O96	O	0.484225	0.338058	0.874325
H187	H	0.265050	0.494450	0.912625
H188	H	0.486150	0.373125	0.919775
C283	C	0.469500	0.272325	0.863750
Ni24	Ni	0.498700	0.311510	0.834858
N48	N	0.465275	0.338475	0.803775
H189	H	0.250050	0.253450	0.986025
C284	C	0.476925	0.370225	0.761025
C285	C	0.495075	0.349200	0.780425
H190	H	0.468025	0.286750	0.769775
C286	C	0.416125	0.348875	0.808650
H191	H	0.394825	0.341350	0.825175
C287	C	0.395650	0.369925	0.790650
H192	H	0.361150	0.376875	0.794775
C288	C	0.426975	0.380750	0.766150
O97	O	0.438725	0.533270	0.092550
O98	O	0.484225	0.588058	0.124325
H193	H	0.265050	0.744450	0.162625
H194	H	0.486150	0.623125	0.169775
C289	C	0.469500	0.522325	0.113750
Ni25	Ni	0.498700	0.561510	0.084858
N49	N	0.465275	0.588475	0.053775
H195	H	0.250050	0.503450	0.236025
C290	C	0.476925	0.620225	0.011025
C291	C	0.495075	0.599200	0.030425
H196	H	0.468025	0.536750	0.019775
C292	C	0.416125	0.598875	0.058650
H197	H	0.394825	0.591350	0.075175
C293	C	0.395650	0.619925	0.040650
H198	H	0.361150	0.626875	0.044775
C294	C	0.426975	0.630750	0.016150
Ni26	Ni	0.373700	0.688490	0.459858
O99	O	0.310325	0.587405	0.348225
O100	O	0.266625	0.529950	0.368550
N50	N	0.406975	0.710725	0.424050
N51	N	0.340275	0.661525	0.428775
C295	C	0.396950	0.739825	0.378350
H199	H	0.375050	0.746550	0.361025
C296	C	0.448300	0.749500	0.383425
C297	C	0.479275	0.738650	0.408850
C298	C	0.351925	0.629775	0.386025
H200	H	0.373775	0.622750	0.369450
C299	C	0.370075	0.650800	0.405425
H201	H	0.404775	0.657825	0.401975
C300	C	0.377875	0.720225	0.398750
H202	H	0.343025	0.713250	0.394775
C301	C	0.457125	0.719425	0.428425
H203	H	0.478325	0.712075	0.445650
C302	C	0.291125	0.651125	0.433650
H204	H	0.269825	0.658650	0.450175
C303	C	0.270650	0.630075	0.415650
C304	C	0.301975	0.619250	0.391150
C305	C	0.280500	0.596550	0.370375
O101	O	0.435325	0.662595	0.473225
O102	O	0.313725	0.716730	0.467550
O103	O	0.359225	0.661942	0.499325
O104	O	0.391625	0.720050	0.493550
N52	N	0.281975	0.539275	0.299050
C306	C	0.271950	0.510175	0.253350
C307	C	0.323300	0.500500	0.258425
C308	C	0.354275	0.511350	0.283850
H205	H	0.390050	0.505550	0.287625
H206	H	0.498775	0.627250	0.494450
H207	H	0.279775	0.592175	0.276975
C309	C	0.252875	0.529775	0.273750
C310	C	0.332125	0.530575	0.303425
H208	H	0.353325	0.537925	0.320650
C311	C	0.344500	0.727675	0.488750
C312	C	0.405500	0.653450	0.495375
O105	O	0.438725	0.533270	0.592550
O106	O	0.484225	0.588058	0.624325
H209	H	0.265050	0.744450	0.662625
H210	H	0.486150	0.623125	0.669775
C313	C	0.469500	0.522325	0.613750
Ni27	Ni	0.498700	0.561510	0.584858
N53	N	0.465275	0.588475	0.553775
H211	H	0.250050	0.503450	0.736025
C314	C	0.476925	0.620225	0.511025
C315	C	0.495075	0.599200	0.530425
H212	H	0.468025	0.536750	0.519775
C316	C	0.416125	0.598875	0.558650
H213	H	0.394825	0.591350	0.575175
C317	C	0.395650	0.619925	0.540650
H214	H	0.361150	0.626875	0.544775
C318	C	0.426975	0.630750	0.516150
Ni28	Ni	0.373700	0.688490	0.959858
O107	O	0.310325	0.587405	0.848225
O108	O	0.266625	0.529950	0.868550
N54	N	0.406975	0.710725	0.924050
N55	N	0.340275	0.661525	0.928775
C319	C	0.396950	0.739825	0.878350
H215	H	0.375050	0.746550	0.861025
C320	C	0.448300	0.749500	0.883425
C321	C	0.479275	0.738650	0.908850
C322	C	0.351925	0.629775	0.886025
H216	H	0.373775	0.622750	0.869450
C323	C	0.370075	0.650800	0.905425
H217	H	0.404775	0.657825	0.901975
C324	C	0.377875	0.720225	0.898750
H218	H	0.343025	0.713250	0.894775
C325	C	0.457125	0.719425	0.928425
H219	H	0.478325	0.712075	0.945650
C326	C	0.291125	0.651125	0.933650
H220	H	0.269825	0.658650	0.950175
C327	C	0.270650	0.630075	0.915650
C328	C	0.301975	0.619250	0.891150
C329	C	0.280500	0.596550	0.870375
O109	O	0.435325	0.662595	0.973225
O110	O	0.313725	0.716730	0.967550
O111	O	0.359225	0.661942	0.999325
O112	O	0.391625	0.720050	0.993550
N56	N	0.281975	0.539275	0.799050
C330	C	0.271950	0.510175	0.753350
C331	C	0.323300	0.500500	0.758425
C332	C	0.354275	0.511350	0.783850
H221	H	0.390050	0.505550	0.787625
H222	H	0.498775	0.627250	0.994450
H223	H	0.279775	0.592175	0.776975
C333	C	0.252875	0.529775	0.773750
C334	C	0.332125	0.530575	0.803425
H224	H	0.353325	0.537925	0.820650
C335	C	0.344500	0.727675	0.988750
C336	C	0.405500	0.653450	0.995375
Ni29	Ni	0.373700	0.938490	0.209858
O113	O	0.310325	0.837405	0.098225
O114	O	0.266625	0.779950	0.118550
N57	N	0.406975	0.960725	0.174050
N58	N	0.340275	0.911525	0.178775
C337	C	0.396950	0.989825	0.128350
H225	H	0.375050	0.996550	0.111025
C338	C	0.448300	0.999500	0.133425
C339	C	0.479275	0.988650	0.158850
C340	C	0.351925	0.879775	0.136025
H226	H	0.373775	0.872750	0.119450
C341	C	0.370075	0.900800	0.155425
H227	H	0.404775	0.907825	0.151975
C342	C	0.377875	0.970225	0.148750
H228	H	0.343025	0.963250	0.144775
C343	C	0.457125	0.969425	0.178425
H229	H	0.478325	0.962075	0.195650
C344	C	0.291125	0.901125	0.183650
H230	H	0.269825	0.908650	0.200175
C345	C	0.270650	0.880075	0.165650
C346	C	0.301975	0.869250	0.141150
C347	C	0.280500	0.846550	0.120375
O115	O	0.435325	0.912595	0.223225
O116	O	0.313725	0.966730	0.217550
O117	O	0.359225	0.911942	0.249325
O118	O	0.391625	0.970050	0.243550
N59	N	0.281975	0.789275	0.049050
C348	C	0.271950	0.760175	0.003350
C349	C	0.323300	0.750500	0.008425
C350	C	0.354275	0.761350	0.033850
H231	H	0.390050	0.755550	0.037625
H232	H	0.498775	0.877250	0.244450
H233	H	0.279775	0.842175	0.026975
C351	C	0.252875	0.779775	0.023750
C352	C	0.332125	0.780575	0.053425
H234	H	0.353325	0.787925	0.070650
C353	C	0.344500	0.977675	0.238750
C354	C	0.405500	0.903450	0.245375
O119	O	0.438725	0.783270	0.342550
O120	O	0.484225	0.838058	0.374325
H235	H	0.265050	0.994450	0.412625
H236	H	0.486150	0.873125	0.419775
C355	C	0.469500	0.772325	0.363750
Ni30	Ni	0.498700	0.811510	0.334858
N60	N	0.465275	0.838475	0.303775
H237	H	0.250050	0.753450	0.486025
C356	C	0.476925	0.870225	0.261025
C357	C	0.495075	0.849200	0.280425
H238	H	0.468025	0.786750	0.269775
C358	C	0.416125	0.848875	0.308650
H239	H	0.394825	0.841350	0.325175
C359	C	0.395650	0.869925	0.290650
H240	H	0.361150	0.876875	0.294775
C360	C	0.426975	0.880750	0.266150
Ni31	Ni	0.373700	0.938490	0.709858
O121	O	0.310325	0.837405	0.598225
O122	O	0.266625	0.779950	0.618550
N61	N	0.406975	0.960725	0.674050
N62	N	0.340275	0.911525	0.678775
C361	C	0.396950	0.989825	0.628350
H241	H	0.375050	0.996550	0.611025
C362	C	0.448300	0.999500	0.633425
C363	C	0.479275	0.988650	0.658850
C364	C	0.351925	0.879775	0.636025
H242	H	0.373775	0.872750	0.619450
C365	C	0.370075	0.900800	0.655425
H243	H	0.404775	0.907825	0.651975
C366	C	0.377875	0.970225	0.648750
H244	H	0.343025	0.963250	0.644775
C367	C	0.457125	0.969425	0.678425
H245	H	0.478325	0.962075	0.695650
C368	C	0.291125	0.901125	0.683650
H246	H	0.269825	0.908650	0.700175
C369	C	0.270650	0.880075	0.665650
C370	C	0.301975	0.869250	0.641150
C371	C	0.280500	0.846550	0.620375
O123	O	0.435325	0.912595	0.723225
O124	O	0.313725	0.966730	0.717550
O125	O	0.359225	0.911942	0.749325
O126	O	0.391625	0.970050	0.743550
N63	N	0.281975	0.789275	0.549050
C372	C	0.271950	0.760175	0.503350
C373	C	0.323300	0.750500	0.508425
C374	C	0.354275	0.761350	0.533850
H247	H	0.390050	0.755550	0.537625
H248	H	0.498775	0.877250	0.744450
H249	H	0.279775	0.842175	0.526975
C375	C	0.252875	0.779775	0.523750
C376	C	0.332125	0.780575	0.553425
H250	H	0.353325	0.787925	0.570650
C377	C	0.344500	0.977675	0.738750
C378	C	0.405500	0.903450	0.745375
O127	O	0.438725	0.783270	0.842550
O128	O	0.484225	0.838058	0.874325
H251	H	0.265050	0.994450	0.912625
H252	H	0.486150	0.873125	0.919775
C379	C	0.469500	0.772325	0.863750
Ni32	Ni	0.498700	0.811510	0.834858
N64	N	0.465275	0.838475	0.803775
H253	H	0.250050	0.753450	0.986025
C380	C	0.476925	0.870225	0.761025
C381	C	0.495075	0.849200	0.780425
H254	H	0.468025	0.786750	0.769775
C382	C	0.416125	0.848875	0.808650
H255	H	0.394825	0.841350	0.825175
C383	C	0.395650	0.869925	0.790650
H256	H	0.361150	0.876875	0.794775
C384	C	0.426975	0.880750	0.766150
Ni33	Ni	0.623700	0.188490	0.209858
O129	O	0.560325	0.087405	0.098225
O130	O	0.516625	0.029950	0.118550
N65	N	0.656975	0.210725	0.174050
N66	N	0.590275	0.161525	0.178775
C385	C	0.646950	0.239825	0.128350
H257	H	0.625050	0.246550	0.111025
C386	C	0.698300	0.249500	0.133425
C387	C	0.729275	0.238650	0.158850
C388	C	0.601925	0.129775	0.136025
H258	H	0.623775	0.122750	0.119450
C389	C	0.620075	0.150800	0.155425
H259	H	0.654775	0.157825	0.151975
C390	C	0.627875	0.220225	0.148750
H260	H	0.593025	0.213250	0.144775
C391	C	0.707125	0.219425	0.178425
H261	H	0.728325	0.212075	0.195650
C392	C	0.541125	0.151125	0.183650
H262	H	0.519825	0.158650	0.200175
C393	C	0.520650	0.130075	0.165650
C394	C	0.551975	0.119250	0.141150
C395	C	0.530500	0.096550	0.120375
O131	O	0.685325	0.162595	0.223225
O132	O	0.563725	0.216730	0.217550
O133	O	0.609225	0.161942	0.249325
O134	O	0.641625	0.220050	0.243550
N67	N	0.531975	0.039275	0.049050
C396	C	0.521950	0.010175	0.003350
C397	C	0.573300	0.000500	0.008425
C398	C	0.604275	0.011350	0.033850
H263	H	0.640050	0.005550	0.037625
H264	H	0.748775	0.127250	0.244450
H265	H	0.529775	0.092175	0.026975
C399	C	0.502875	0.029775	0.023750
C400	C	0.582125	0.030575	0.053425
H266	H	0.603325	0.037925	0.070650
C401	C	0.594500	0.227675	0.238750
C402	C	0.655500	0.153450	0.245375
O135	O	0.688725	0.033270	0.342550
O136	O	0.734225	0.088057	0.374325
H267	H	0.515050	0.244450	0.412625
H268	H	0.736150	0.123125	0.419775
C403	C	0.719500	0.022325	0.363750
Ni34	Ni	0.748700	0.061510	0.334858
N68	N	0.715275	0.088475	0.303775
H269	H	0.500050	0.003450	0.486025
C404	C	0.726925	0.120225	0.261025
C405	C	0.745075	0.099200	0.280425
H270	H	0.718025	0.036750	0.269775
C406	C	0.666125	0.098875	0.308650
H271	H	0.644825	0.091350	0.325175
C407	C	0.645650	0.119925	0.290650
H272	H	0.611150	0.126875	0.294775
C408	C	0.676975	0.130750	0.266150
Ni35	Ni	0.623700	0.188490	0.709858
O137	O	0.560325	0.087405	0.598225
O138	O	0.516625	0.029950	0.618550
N69	N	0.656975	0.210725	0.674050
N70	N	0.590275	0.161525	0.678775
C409	C	0.646950	0.239825	0.628350
H273	H	0.625050	0.246550	0.611025
C410	C	0.698300	0.249500	0.633425
C411	C	0.729275	0.238650	0.658850
C412	C	0.601925	0.129775	0.636025
H274	H	0.623775	0.122750	0.619450
C413	C	0.620075	0.150800	0.655425
H275	H	0.654775	0.157825	0.651975
C414	C	0.627875	0.220225	0.648750
H276	H	0.593025	0.213250	0.644775
C415	C	0.707125	0.219425	0.678425
H277	H	0.728325	0.212075	0.695650
C416	C	0.541125	0.151125	0.683650
H278	H	0.519825	0.158650	0.700175
C417	C	0.520650	0.130075	0.665650
C418	C	0.551975	0.119250	0.641150
C419	C	0.530500	0.096550	0.620375
O139	O	0.685325	0.162595	0.723225
O140	O	0.563725	0.216730	0.717550
O141	O	0.609225	0.161942	0.749325
O142	O	0.641625	0.220050	0.743550
N71	N	0.531975	0.039275	0.549050
C420	C	0.521950	0.010175	0.503350
C421	C	0.573300	0.000500	0.508425
C422	C	0.604275	0.011350	0.533850
H279	H	0.640050	0.005550	0.537625
H280	H	0.748775	0.127250	0.744450
H281	H	0.529775	0.092175	0.526975
C423	C	0.502875	0.029775	0.523750
C424	C	0.582125	0.030575	0.553425
H282	H	0.603325	0.037925	0.570650
C425	C	0.594500	0.227675	0.738750
C426	C	0.655500	0.153450	0.745375
O143	O	0.688725	0.033270	0.842550
O144	O	0.734225	0.088057	0.874325
H283	H	0.515050	0.244450	0.912625
H284	H	0.736150	0.123125	0.919775
C427	C	0.719500	0.022325	0.863750
Ni36	Ni	0.748700	0.061510	0.834858
N72	N	0.715275	0.088475	0.803775
H285	H	0.500050	0.003450	0.986025
C428	C	0.726925	0.120225	0.761025
C429	C	0.745075	0.099200	0.780425
H286	H	0.718025	0.036750	0.769775
C430	C	0.666125	0.098875	0.808650
H287	H	0.644825	0.091350	0.825175
C431	C	0.645650	0.119925	0.790650
H288	H	0.611150	0.126875	0.794775
C432	C	0.676975	0.130750	0.766150
O145	O	0.688725	0.283270	0.092550
O146	O	0.734225	0.338058	0.124325
H289	H	0.515050	0.494450	0.162625
H290	H	0.736150	0.373125	0.169775
C433	C	0.719500	0.272325	0.113750
Ni37	Ni	0.748700	0.311510	0.084858
N73	N	0.715275	0.338475	0.053775
H291	H	0.500050	0.253450	0.236025
C434	C	0.726925	0.370225	0.011025
C435	C	0.745075	0.349200	0.030425
H292	H	0.718025	0.286750	0.019775
C436	C	0.666125	0.348875	0.058650
H293	H	0.644825	0.341350	0.075175
C437	C	0.645650	0.369925	0.040650
H294	H	0.611150	0.376875	0.044775
C438	C	0.676975	0.380750	0.016150
Ni38	Ni	0.623700	0.438490	0.459858
O147	O	0.560325	0.337405	0.348225
O148	O	0.516625	0.279950	0.368550
N74	N	0.656975	0.460725	0.424050
N75	N	0.590275	0.411525	0.428775
C439	C	0.646950	0.489825	0.378350
H295	H	0.625050	0.496550	0.361025
C440	C	0.698300	0.499500	0.383425
C441	C	0.729275	0.488650	0.408850
C442	C	0.601925	0.379775	0.386025
H296	H	0.623775	0.372750	0.369450
C443	C	0.620075	0.400800	0.405425
H297	H	0.654775	0.407825	0.401975
C444	C	0.627875	0.470225	0.398750
H298	H	0.593025	0.463250	0.394775
C445	C	0.707125	0.469425	0.428425
H299	H	0.728325	0.462075	0.445650
C446	C	0.541125	0.401125	0.433650
H300	H	0.519825	0.408650	0.450175
C447	C	0.520650	0.380075	0.415650
C448	C	0.551975	0.369250	0.391150
C449	C	0.530500	0.346550	0.370375
O149	O	0.685325	0.412595	0.473225
O150	O	0.563725	0.466730	0.467550
O151	O	0.609225	0.411942	0.499325
O152	O	0.641625	0.470050	0.493550
N76	N	0.531975	0.289275	0.299050
C450	C	0.521950	0.260175	0.253350
C451	C	0.573300	0.250500	0.258425
C452	C	0.604275	0.261350	0.283850
H301	H	0.640050	0.255550	0.287625
H302	H	0.748775	0.377250	0.494450
H303	H	0.529775	0.342175	0.276975
C453	C	0.502875	0.279775	0.273750
C454	C	0.582125	0.280575	0.303425
H304	H	0.603325	0.287925	0.320650
C455	C	0.594500	0.477675	0.488750
C456	C	0.655500	0.403450	0.495375
O153	O	0.688725	0.283270	0.592550
O154	O	0.734225	0.338058	0.624325
H305	H	0.515050	0.494450	0.662625
H306	H	0.736150	0.373125	0.669775
C457	C	0.719500	0.272325	0.613750
Ni39	Ni	0.748700	0.311510	0.584858
N77	N	0.715275	0.338475	0.553775
H307	H	0.500050	0.253450	0.736025
C458	C	0.726925	0.370225	0.511025
C459	C	0.745075	0.349200	0.530425
H308	H	0.718025	0.286750	0.519775
C460	C	0.666125	0.348875	0.558650
H309	H	0.644825	0.341350	0.575175
C461	C	0.645650	0.369925	0.540650
H310	H	0.611150	0.376875	0.544775
C462	C	0.676975	0.380750	0.516150
Ni40	Ni	0.623700	0.438490	0.959858
O155	O	0.560325	0.337405	0.848225
O156	O	0.516625	0.279950	0.868550
N78	N	0.656975	0.460725	0.924050
N79	N	0.590275	0.411525	0.928775
C463	C	0.646950	0.489825	0.878350
H311	H	0.625050	0.496550	0.861025
C464	C	0.698300	0.499500	0.883425
C465	C	0.729275	0.488650	0.908850
C466	C	0.601925	0.379775	0.886025
H312	H	0.623775	0.372750	0.869450
C467	C	0.620075	0.400800	0.905425
H313	H	0.654775	0.407825	0.901975
C468	C	0.627875	0.470225	0.898750
H314	H	0.593025	0.463250	0.894775
C469	C	0.707125	0.469425	0.928425
H315	H	0.728325	0.462075	0.945650
C470	C	0.541125	0.401125	0.933650
H316	H	0.519825	0.408650	0.950175
C471	C	0.520650	0.380075	0.915650
C472	C	0.551975	0.369250	0.891150
C473	C	0.530500	0.346550	0.870375
O157	O	0.685325	0.412595	0.973225
O158	O	0.563725	0.466730	0.967550
O159	O	0.609225	0.411942	0.999325
O160	O	0.641625	0.470050	0.993550
N80	N	0.531975	0.289275	0.799050
C474	C	0.521950	0.260175	0.753350
C475	C	0.573300	0.250500	0.758425
C476	C	0.604275	0.261350	0.783850
H317	H	0.640050	0.255550	0.787625
H318	H	0.748775	0.377250	0.994450
H319	H	0.529775	0.342175	0.776975
C477	C	0.502875	0.279775	0.773750
C478	C	0.582125	0.280575	0.803425
H320	H	0.603325	0.287925	0.820650
C479	C	0.594500	0.477675	0.988750
C480	C	0.655500	0.403450	0.995375
Ni41	Ni	0.623700	0.688490	0.209858
O161	O	0.560325	0.587405	0.098225
O162	O	0.516625	0.529950	0.118550
N81	N	0.656975	0.710725	0.174050
N82	N	0.590275	0.661525	0.178775
C481	C	0.646950	0.739825	0.128350
H321	H	0.625050	0.746550	0.111025
C482	C	0.698300	0.749500	0.133425
C483	C	0.729275	0.738650	0.158850
C484	C	0.601925	0.629775	0.136025
H322	H	0.623775	0.622750	0.119450
C485	C	0.620075	0.650800	0.155425
H323	H	0.654775	0.657825	0.151975
C486	C	0.627875	0.720225	0.148750
H324	H	0.593025	0.713250	0.144775
C487	C	0.707125	0.719425	0.178425
H325	H	0.728325	0.712075	0.195650
C488	C	0.541125	0.651125	0.183650
H326	H	0.519825	0.658650	0.200175
C489	C	0.520650	0.630075	0.165650
C490	C	0.551975	0.619250	0.141150
C491	C	0.530500	0.596550	0.120375
O163	O	0.685325	0.662595	0.223225
O164	O	0.563725	0.716730	0.217550
O165	O	0.609225	0.661942	0.249325
O166	O	0.641625	0.720050	0.243550
N83	N	0.531975	0.539275	0.049050
C492	C	0.521950	0.510175	0.003350
C493	C	0.573300	0.500500	0.008425
C494	C	0.604275	0.511350	0.033850
H327	H	0.640050	0.505550	0.037625
H328	H	0.748775	0.627250	0.244450
H329	H	0.529775	0.592175	0.026975
C495	C	0.502875	0.529775	0.023750
C496	C	0.582125	0.530575	0.053425
H330	H	0.603325	0.537925	0.070650
C497	C	0.594500	0.727675	0.238750
C498	C	0.655500	0.653450	0.245375
O167	O	0.688725	0.533270	0.342550
O168	O	0.734225	0.588058	0.374325
H331	H	0.515050	0.744450	0.412625
H332	H	0.736150	0.623125	0.419775
C499	C	0.719500	0.522325	0.363750
Ni42	Ni	0.748700	0.561510	0.334858
N84	N	0.715275	0.588475	0.303775
H333	H	0.500050	0.503450	0.486025
C500	C	0.726925	0.620225	0.261025
C501	C	0.745075	0.599200	0.280425
H334	H	0.718025	0.536750	0.269775
C502	C	0.666125	0.598875	0.308650
H335	H	0.644825	0.591350	0.325175
C503	C	0.645650	0.619925	0.290650
H336	H	0.611150	0.626875	0.294775
C504	C	0.676975	0.630750	0.266150
Ni43	Ni	0.623700	0.688490	0.709858
O169	O	0.560325	0.587405	0.598225
O170	O	0.516625	0.529950	0.618550
N85	N	0.656975	0.710725	0.674050
N86	N	0.590275	0.661525	0.678775
C505	C	0.646950	0.739825	0.628350
H337	H	0.625050	0.746550	0.611025
C506	C	0.698300	0.749500	0.633425
C507	C	0.729275	0.738650	0.658850
C508	C	0.601925	0.629775	0.636025
H338	H	0.623775	0.622750	0.619450
C509	C	0.620075	0.650800	0.655425
H339	H	0.654775	0.657825	0.651975
C510	C	0.627875	0.720225	0.648750
H340	H	0.593025	0.713250	0.644775
C511	C	0.707125	0.719425	0.678425
H341	H	0.728325	0.712075	0.695650
C512	C	0.541125	0.651125	0.683650
H342	H	0.519825	0.658650	0.700175
C513	C	0.520650	0.630075	0.665650
C514	C	0.551975	0.619250	0.641150
C515	C	0.530500	0.596550	0.620375
O171	O	0.685325	0.662595	0.723225
O172	O	0.563725	0.716730	0.717550
O173	O	0.609225	0.661942	0.749325
O174	O	0.641625	0.720050	0.743550
N87	N	0.531975	0.539275	0.549050
C516	C	0.521950	0.510175	0.503350
C517	C	0.573300	0.500500	0.508425
C518	C	0.604275	0.511350	0.533850
H343	H	0.640050	0.505550	0.537625
H344	H	0.748775	0.627250	0.744450
H345	H	0.529775	0.592175	0.526975
C519	C	0.502875	0.529775	0.523750
C520	C	0.582125	0.530575	0.553425
H346	H	0.603325	0.537925	0.570650
C521	C	0.594500	0.727675	0.738750
C522	C	0.655500	0.653450	0.745375
O175	O	0.688725	0.533270	0.842550
O176	O	0.734225	0.588058	0.874325
H347	H	0.515050	0.744450	0.912625
H348	H	0.736150	0.623125	0.919775
C523	C	0.719500	0.522325	0.863750
Ni44	Ni	0.748700	0.561510	0.834858
N88	N	0.715275	0.588475	0.803775
H349	H	0.500050	0.503450	0.986025
C524	C	0.726925	0.620225	0.761025
C525	C	0.745075	0.599200	0.780425
H350	H	0.718025	0.536750	0.769775
C526	C	0.666125	0.598875	0.808650
H351	H	0.644825	0.591350	0.825175
C527	C	0.645650	0.619925	0.790650
H352	H	0.611150	0.626875	0.794775
C528	C	0.676975	0.630750	0.766150
O177	O	0.688725	0.783270	0.092550
O178	O	0.734225	0.838058	0.124325
H353	H	0.515050	0.994450	0.162625
H354	H	0.736150	0.873125	0.169775
C529	C	0.719500	0.772325	0.113750
Ni45	Ni	0.748700	0.811510	0.084858
N89	N	0.715275	0.838475	0.053775
H355	H	0.500050	0.753450	0.236025
C530	C	0.726925	0.870225	0.011025
C531	C	0.745075	0.849200	0.030425
H356	H	0.718025	0.786750	0.019775
C532	C	0.666125	0.848875	0.058650
H357	H	0.644825	0.841350	0.075175
C533	C	0.645650	0.869925	0.040650
H358	H	0.611150	0.876875	0.044775
C534	C	0.676975	0.880750	0.016150
Ni46	Ni	0.623700	0.938490	0.459858
O179	O	0.560325	0.837405	0.348225
O180	O	0.516625	0.779950	0.368550
N90	N	0.656975	0.960725	0.424050
N91	N	0.590275	0.911525	0.428775
C535	C	0.646950	0.989825	0.378350
H359	H	0.625050	0.996550	0.361025
C536	C	0.698300	0.999500	0.383425
C537	C	0.729275	0.988650	0.408850
C538	C	0.601925	0.879775	0.386025
H360	H	0.623775	0.872750	0.369450
C539	C	0.620075	0.900800	0.405425
H361	H	0.654775	0.907825	0.401975
C540	C	0.627875	0.970225	0.398750
H362	H	0.593025	0.963250	0.394775
C541	C	0.707125	0.969425	0.428425
H363	H	0.728325	0.962075	0.445650
C542	C	0.541125	0.901125	0.433650
H364	H	0.519825	0.908650	0.450175
C543	C	0.520650	0.880075	0.415650
C544	C	0.551975	0.869250	0.391150
C545	C	0.530500	0.846550	0.370375
O181	O	0.685325	0.912595	0.473225
O182	O	0.563725	0.966730	0.467550
O183	O	0.609225	0.911942	0.499325
O184	O	0.641625	0.970050	0.493550
N92	N	0.531975	0.789275	0.299050
C546	C	0.521950	0.760175	0.253350
C547	C	0.573300	0.750500	0.258425
C548	C	0.604275	0.761350	0.283850
H365	H	0.640050	0.755550	0.287625
H366	H	0.748775	0.877250	0.494450
H367	H	0.529775	0.842175	0.276975
C549	C	0.502875	0.779775	0.273750
C550	C	0.582125	0.780575	0.303425
H368	H	0.603325	0.787925	0.320650
C551	C	0.594500	0.977675	0.488750
C552	C	0.655500	0.903450	0.495375
O185	O	0.688725	0.783270	0.592550
O186	O	0.734225	0.838058	0.624325
H369	H	0.515050	0.994450	0.662625
H370	H	0.736150	0.873125	0.669775
C553	C	0.719500	0.772325	0.613750
Ni47	Ni	0.748700	0.811510	0.584858
N93	N	0.715275	0.838475	0.553775
H371	H	0.500050	0.753450	0.736025
C554	C	0.726925	0.870225	0.511025
C555	C	0.745075	0.849200	0.530425
H372	H	0.718025	0.786750	0.519775
C556	C	0.666125	0.848875	0.558650
H373	H	0.644825	0.841350	0.575175
C557	C	0.645650	0.869925	0.540650
H374	H	0.611150	0.876875	0.544775
C558	C	0.676975	0.880750	0.516150
Ni48	Ni	0.623700	0.938490	0.959858
O187	O	0.560325	0.837405	0.848225
O188	O	0.516625	0.779950	0.868550
N94	N	0.656975	0.960725	0.924050
N95	N	0.590275	0.911525	0.928775
C559	C	0.646950	0.989825	0.878350
H375	H	0.625050	0.996550	0.861025
C560	C	0.698300	0.999500	0.883425
C561	C	0.729275	0.988650	0.908850
C562	C	0.601925	0.879775	0.886025
H376	H	0.623775	0.872750	0.869450
C563	C	0.620075	0.900800	0.905425
H377	H	0.654775	0.907825	0.901975
C564	C	0.627875	0.970225	0.898750
H378	H	0.593025	0.963250	0.894775
C565	C	0.707125	0.969425	0.928425
H379	H	0.728325	0.962075	0.945650
C566	C	0.541125	0.901125	0.933650
H380	H	0.519825	0.908650	0.950175
C567	C	0.520650	0.880075	0.915650
C568	C	0.551975	0.869250	0.891150
C569	C	0.530500	0.846550	0.870375
O189	O	0.685325	0.912595	0.973225
O190	O	0.563725	0.966730	0.967550
O191	O	0.609225	0.911942	0.999325
O192	O	0.641625	0.970050	0.993550
N96	N	0.531975	0.789275	0.799050
C570	C	0.521950	0.760175	0.753350
C571	C	0.573300	0.750500	0.758425
C572	C	0.604275	0.761350	0.783850
H381	H	0.640050	0.755550	0.787625
H382	H	0.748775	0.877250	0.994450
H383	H	0.529775	0.842175	0.776975
C573	C	0.502875	0.779775	0.773750
C574	C	0.582125	0.780575	0.803425
H384	H	0.603325	0.787925	0.820650
C575	C	0.594500	0.977675	0.988750
C576	C	0.655500	0.903450	0.995375
O193	O	0.938725	0.033270	0.092550
O194	O	0.984225	0.088057	0.124325
H385	H	0.765050	0.244450	0.162625
H386	H	0.986150	0.123125	0.169775
C577	C	0.969500	0.022325	0.113750
Ni49	Ni	0.998700	0.061510	0.084858
N97	N	0.965275	0.088475	0.053775
H387	H	0.750050	0.003450	0.236025
C578	C	0.976925	0.120225	0.011025
C579	C	0.995075	0.099200	0.030425
H388	H	0.968025	0.036750	0.019775
C580	C	0.916125	0.098875	0.058650
H389	H	0.894825	0.091350	0.075175
C581	C	0.895650	0.119925	0.040650
H390	H	0.861150	0.126875	0.044775
C582	C	0.926975	0.130750	0.016150
Ni50	Ni	0.873700	0.188490	0.459858
O195	O	0.810325	0.087405	0.348225
O196	O	0.766625	0.029950	0.368550
N98	N	0.906975	0.210725	0.424050
N99	N	0.840275	0.161525	0.428775
C583	C	0.896950	0.239825	0.378350
H391	H	0.875050	0.246550	0.361025
C584	C	0.948300	0.249500	0.383425
C585	C	0.979275	0.238650	0.408850
C586	C	0.851925	0.129775	0.386025
H392	H	0.873775	0.122750	0.369450
C587	C	0.870075	0.150800	0.405425
H393	H	0.904775	0.157825	0.401975
C588	C	0.877875	0.220225	0.398750
H394	H	0.843025	0.213250	0.394775
C589	C	0.957125	0.219425	0.428425
H395	H	0.978325	0.212075	0.445650
C590	C	0.791125	0.151125	0.433650
H396	H	0.769825	0.158650	0.450175
C591	C	0.770650	0.130075	0.415650
C592	C	0.801975	0.119250	0.391150
C593	C	0.780500	0.096550	0.370375
O197	O	0.935325	0.162595	0.473225
O198	O	0.813725	0.216730	0.467550
O199	O	0.859225	0.161942	0.499325
O200	O	0.891625	0.220050	0.493550
N100	N	0.781975	0.039275	0.299050
C594	C	0.771950	0.010175	0.253350
C595	C	0.823300	0.000500	0.258425
C596	C	0.854275	0.011350	0.283850
H397	H	0.890050	0.005550	0.287625
H398	H	0.998775	0.127250	0.494450
H399	H	0.779775	0.092175	0.276975
C597	C	0.752875	0.029775	0.273750
C598	C	0.832125	0.030575	0.303425
H400	H	0.853325	0.037925	0.320650
C599	C	0.844500	0.227675	0.488750
C600	C	0.905500	0.153450	0.495375
O201	O	0.938725	0.033270	0.592550
O202	O	0.984225	0.088057	0.624325
H401	H	0.765050	0.244450	0.662625
H402	H	0.986150	0.123125	0.669775
C601	C	0.969500	0.022325	0.613750
Ni51	Ni	0.998700	0.061510	0.584858
N101	N	0.965275	0.088475	0.553775
H403	H	0.750050	0.003450	0.736025
C602	C	0.976925	0.120225	0.511025
C603	C	0.995075	0.099200	0.530425
H404	H	0.968025	0.036750	0.519775
C604	C	0.916125	0.098875	0.558650
H405	H	0.894825	0.091350	0.575175
C605	C	0.895650	0.119925	0.540650
H406	H	0.861150	0.126875	0.544775
C606	C	0.926975	0.130750	0.516150
Ni52	Ni	0.873700	0.188490	0.959858
O203	O	0.810325	0.087405	0.848225
O204	O	0.766625	0.029950	0.868550
N102	N	0.906975	0.210725	0.924050
N103	N	0.840275	0.161525	0.928775
C607	C	0.896950	0.239825	0.878350
H407	H	0.875050	0.246550	0.861025
C608	C	0.948300	0.249500	0.883425
C609	C	0.979275	0.238650	0.908850
C610	C	0.851925	0.129775	0.886025
H408	H	0.873775	0.122750	0.869450
C611	C	0.870075	0.150800	0.905425
H409	H	0.904775	0.157825	0.901975
C612	C	0.877875	0.220225	0.898750
H410	H	0.843025	0.213250	0.894775
C613	C	0.957125	0.219425	0.928425
H411	H	0.978325	0.212075	0.945650
C614	C	0.791125	0.151125	0.933650
H412	H	0.769825	0.158650	0.950175
C615	C	0.770650	0.130075	0.915650
C616	C	0.801975	0.119250	0.891150
C617	C	0.780500	0.096550	0.870375
O205	O	0.935325	0.162595	0.973225
O206	O	0.813725	0.216730	0.967550
O207	O	0.859225	0.161942	0.999325
O208	O	0.891625	0.220050	0.993550
N104	N	0.781975	0.039275	0.799050
C618	C	0.771950	0.010175	0.753350
C619	C	0.823300	0.000500	0.758425
C620	C	0.854275	0.011350	0.783850
H413	H	0.890050	0.005550	0.787625
H414	H	0.998775	0.127250	0.994450
H415	H	0.779775	0.092175	0.776975
C621	C	0.752875	0.029775	0.773750
C622	C	0.832125	0.030575	0.803425
H416	H	0.853325	0.037925	0.820650
C623	C	0.844500	0.227675	0.988750
C624	C	0.905500	0.153450	0.995375
Ni53	Ni	0.873700	0.438490	0.209858
O209	O	0.810325	0.337405	0.098225
O210	O	0.766625	0.279950	0.118550
N105	N	0.906975	0.460725	0.174050
N106	N	0.840275	0.411525	0.178775
C625	C	0.896950	0.489825	0.128350
H417	H	0.875050	0.496550	0.111025
C626	C	0.948300	0.499500	0.133425
C627	C	0.979275	0.488650	0.158850
C628	C	0.851925	0.379775	0.136025
H418	H	0.873775	0.372750	0.119450
C629	C	0.870075	0.400800	0.155425
H419	H	0.904775	0.407825	0.151975
C630	C	0.877875	0.470225	0.148750
H420	H	0.843025	0.463250	0.144775
C631	C	0.957125	0.469425	0.178425
H421	H	0.978325	0.462075	0.195650
C632	C	0.791125	0.401125	0.183650
H422	H	0.769825	0.408650	0.200175
C633	C	0.770650	0.380075	0.165650
C634	C	0.801975	0.369250	0.141150
C635	C	0.780500	0.346550	0.120375
O211	O	0.935325	0.412595	0.223225
O212	O	0.813725	0.466730	0.217550
O213	O	0.859225	0.411942	0.249325
O214	O	0.891625	0.470050	0.243550
N107	N	0.781975	0.289275	0.049050
C636	C	0.771950	0.260175	0.003350
C637	C	0.823300	0.250500	0.008425
C638	C	0.854275	0.261350	0.033850
H423	H	0.890050	0.255550	0.037625
H424	H	0.998775	0.377250	0.244450
H425	H	0.779775	0.342175	0.026975
C639	C	0.752875	0.279775	0.023750
C640	C	0.832125	0.280575	0.053425
H426	H	0.853325	0.287925	0.070650
C641	C	0.844500	0.477675	0.238750
C642	C	0.905500	0.403450	0.245375
O215	O	0.938725	0.283270	0.342550
O216	O	0.984225	0.338058	0.374325
H427	H	0.765050	0.494450	0.412625
H428	H	0.986150	0.373125	0.419775
C643	C	0.969500	0.272325	0.363750
Ni54	Ni	0.998700	0.311510	0.334858
N108	N	0.965275	0.338475	0.303775
H429	H	0.750050	0.253450	0.486025
C644	C	0.976925	0.370225	0.261025
C645	C	0.995075	0.349200	0.280425
H430	H	0.968025	0.286750	0.269775
C646	C	0.916125	0.348875	0.308650
H431	H	0.894825	0.341350	0.325175
C647	C	0.895650	0.369925	0.290650
H432	H	0.861150	0.376875	0.294775
C648	C	0.926975	0.380750	0.266150
Ni55	Ni	0.873700	0.438490	0.709858
O217	O	0.810325	0.337405	0.598225
O218	O	0.766625	0.279950	0.618550
N109	N	0.906975	0.460725	0.674050
N110	N	0.840275	0.411525	0.678775
C649	C	0.896950	0.489825	0.628350
H433	H	0.875050	0.496550	0.611025
C650	C	0.948300	0.499500	0.633425
C651	C	0.979275	0.488650	0.658850
C652	C	0.851925	0.379775	0.636025
H434	H	0.873775	0.372750	0.619450
C653	C	0.870075	0.400800	0.655425
H435	H	0.904775	0.407825	0.651975
C654	C	0.877875	0.470225	0.648750
H436	H	0.843025	0.463250	0.644775
C655	C	0.957125	0.469425	0.678425
H437	H	0.978325	0.462075	0.695650
C656	C	0.791125	0.401125	0.683650
H438	H	0.769825	0.408650	0.700175
C657	C	0.770650	0.380075	0.665650
C658	C	0.801975	0.369250	0.641150
C659	C	0.780500	0.346550	0.620375
O219	O	0.935325	0.412595	0.723225
O220	O	0.813725	0.466730	0.717550
O221	O	0.859225	0.411942	0.749325
O222	O	0.891625	0.470050	0.743550
N111	N	0.781975	0.289275	0.549050
C660	C	0.771950	0.260175	0.503350
C661	C	0.823300	0.250500	0.508425
C662	C	0.854275	0.261350	0.533850
H439	H	0.890050	0.255550	0.537625
H440	H	0.998775	0.377250	0.744450
H441	H	0.779775	0.342175	0.526975
C663	C	0.752875	0.279775	0.523750
C664	C	0.832125	0.280575	0.553425
H442	H	0.853325	0.287925	0.570650
C665	C	0.844500	0.477675	0.738750
C666	C	0.905500	0.403450	0.745375
O223	O	0.938725	0.283270	0.842550
O224	O	0.984225	0.338058	0.874325
H443	H	0.765050	0.494450	0.912625
H444	H	0.986150	0.373125	0.919775
C667	C	0.969500	0.272325	0.863750
Ni56	Ni	0.998700	0.311510	0.834858
N112	N	0.965275	0.338475	0.803775
H445	H	0.750050	0.253450	0.986025
C668	C	0.976925	0.370225	0.761025
C669	C	0.995075	0.349200	0.780425
H446	H	0.968025	0.286750	0.769775
C670	C	0.916125	0.348875	0.808650
H447	H	0.894825	0.341350	0.825175
C671	C	0.895650	0.369925	0.790650
H448	H	0.861150	0.376875	0.794775
C672	C	0.926975	0.380750	0.766150
O225	O	0.938725	0.533270	0.092550
O226	O	0.984225	0.588058	0.124325
H449	H	0.765050	0.744450	0.162625
H450	H	0.986150	0.623125	0.169775
C673	C	0.969500	0.522325	0.113750
Ni57	Ni	0.998700	0.561510	0.084858
N113	N	0.965275	0.588475	0.053775
H451	H	0.750050	0.503450	0.236025
C674	C	0.976925	0.620225	0.011025
C675	C	0.995075	0.599200	0.030425
H452	H	0.968025	0.536750	0.019775
C676	C	0.916125	0.598875	0.058650
H453	H	0.894825	0.591350	0.075175
C677	C	0.895650	0.619925	0.040650
H454	H	0.861150	0.626875	0.044775
C678	C	0.926975	0.630750	0.016150
Ni58	Ni	0.873700	0.688490	0.459858
O227	O	0.810325	0.587405	0.348225
O228	O	0.766625	0.529950	0.368550
N114	N	0.906975	0.710725	0.424050
N115	N	0.840275	0.661525	0.428775
C679	C	0.896950	0.739825	0.378350
H455	H	0.875050	0.746550	0.361025
C680	C	0.948300	0.749500	0.383425
C681	C	0.979275	0.738650	0.408850
C682	C	0.851925	0.629775	0.386025
H456	H	0.873775	0.622750	0.369450
C683	C	0.870075	0.650800	0.405425
H457	H	0.904775	0.657825	0.401975
C684	C	0.877875	0.720225	0.398750
H458	H	0.843025	0.713250	0.394775
C685	C	0.957125	0.719425	0.428425
H459	H	0.978325	0.712075	0.445650
C686	C	0.791125	0.651125	0.433650
H460	H	0.769825	0.658650	0.450175
C687	C	0.770650	0.630075	0.415650
C688	C	0.801975	0.619250	0.391150
C689	C	0.780500	0.596550	0.370375
O229	O	0.935325	0.662595	0.473225
O230	O	0.813725	0.716730	0.467550
O231	O	0.859225	0.661942	0.499325
O232	O	0.891625	0.720050	0.493550
N116	N	0.781975	0.539275	0.299050
C690	C	0.771950	0.510175	0.253350
C691	C	0.823300	0.500500	0.258425
C692	C	0.854275	0.511350	0.283850
H461	H	0.890050	0.505550	0.287625
H462	H	0.998775	0.627250	0.494450
H463	H	0.779775	0.592175	0.276975
C693	C	0.752875	0.529775	0.273750
C694	C	0.832125	0.530575	0.303425
H464	H	0.853325	0.537925	0.320650
C695	C	0.844500	0.727675	0.488750
C696	C	0.905500	0.653450	0.495375
O233	O	0.938725	0.533270	0.592550
O234	O	0.984225	0.588058	0.624325
H465	H	0.765050	0.744450	0.662625
H466	H	0.986150	0.623125	0.669775
C697	C	0.969500	0.522325	0.613750
Ni59	Ni	0.998700	0.561510	0.584858
N117	N	0.965275	0.588475	0.553775
H467	H	0.750050	0.503450	0.736025
C698	C	0.976925	0.620225	0.511025
C699	C	0.995075	0.599200	0.530425
H468	H	0.968025	0.536750	0.519775
C700	C	0.916125	0.598875	0.558650
H469	H	0.894825	0.591350	0.575175
C701	C	0.895650	0.619925	0.540650
H470	H	0.861150	0.626875	0.544775
C702	C	0.926975	0.630750	0.516150
Ni60	Ni	0.873700	0.688490	0.959858
O235	O	0.810325	0.587405	0.848225
O236	O	0.766625	0.529950	0.868550
N118	N	0.906975	0.710725	0.924050
N119	N	0.840275	0.661525	0.928775
C703	C	0.896950	0.739825	0.878350
H471	H	0.875050	0.746550	0.861025
C704	C	0.948300	0.749500	0.883425
C705	C	0.979275	0.738650	0.908850
C706	C	0.851925	0.629775	0.886025
H472	H	0.873775	0.622750	0.869450
C707	C	0.870075	0.650800	0.905425
H473	H	0.904775	0.657825	0.901975
C708	C	0.877875	0.720225	0.898750
H474	H	0.843025	0.713250	0.894775
C709	C	0.957125	0.719425	0.928425
H475	H	0.978325	0.712075	0.945650
C710	C	0.791125	0.651125	0.933650
H476	H	0.769825	0.658650	0.950175
C711	C	0.770650	0.630075	0.915650
C712	C	0.801975	0.619250	0.891150
C713	C	0.780500	0.596550	0.870375
O237	O	0.935325	0.662595	0.973225
O238	O	0.813725	0.716730	0.967550
O239	O	0.859225	0.661942	0.999325
O240	O	0.891625	0.720050	0.993550
N120	N	0.781975	0.539275	0.799050
C714	C	0.771950	0.510175	0.753350
C715	C	0.823300	0.500500	0.758425
C716	C	0.854275	0.511350	0.783850
H477	H	0.890050	0.505550	0.787625
H478	H	0.998775	0.627250	0.994450
H479	H	0.779775	0.592175	0.776975
C717	C	0.752875	0.529775	0.773750
C718	C	0.832125	0.530575	0.803425
H480	H	0.853325	0.537925	0.820650
C719	C	0.844500	0.727675	0.988750
C720	C	0.905500	0.653450	0.995375
Ni61	Ni	0.873700	0.938490	0.209858
O241	O	0.810325	0.837405	0.098225
O242	O	0.766625	0.779950	0.118550
N121	N	0.906975	0.960725	0.174050
N122	N	0.840275	0.911525	0.178775
C721	C	0.896950	0.989825	0.128350
H481	H	0.875050	0.996550	0.111025
C722	C	0.948300	0.999500	0.133425
C723	C	0.979275	0.988650	0.158850
C724	C	0.851925	0.879775	0.136025
H482	H	0.873775	0.872750	0.119450
C725	C	0.870075	0.900800	0.155425
H483	H	0.904775	0.907825	0.151975
C726	C	0.877875	0.970225	0.148750
H484	H	0.843025	0.963250	0.144775
C727	C	0.957125	0.969425	0.178425
H485	H	0.978325	0.962075	0.195650
C728	C	0.791125	0.901125	0.183650
H486	H	0.769825	0.908650	0.200175
C729	C	0.770650	0.880075	0.165650
C730	C	0.801975	0.869250	0.141150
C731	C	0.780500	0.846550	0.120375
O243	O	0.935325	0.912595	0.223225
O244	O	0.813725	0.966730	0.217550
O245	O	0.859225	0.911942	0.249325
O246	O	0.891625	0.970050	0.243550
N123	N	0.781975	0.789275	0.049050
C732	C	0.771950	0.760175	0.003350
C733	C	0.823300	0.750500	0.008425
C734	C	0.854275	0.761350	0.033850
H487	H	0.890050	0.755550	0.037625
H488	H	0.998775	0.877250	0.244450
H489	H	0.779775	0.842175	0.026975
C735	C	0.752875	0.779775	0.023750
C736	C	0.832125	0.780575	0.053425
H490	H	0.853325	0.787925	0.070650
C737	C	0.844500	0.977675	0.238750
C738	C	0.905500	0.903450	0.245375
O247	O	0.938725	0.783270	0.342550
O248	O	0.984225	0.838058	0.374325
H491	H	0.765050	0.994450	0.412625
H492	H	0.986150	0.873125	0.419775
C739	C	0.969500	0.772325	0.363750
Ni62	Ni	0.998700	0.811510	0.334858
N124	N	0.965275	0.838475	0.303775
H493	H	0.750050	0.753450	0.486025
C740	C	0.976925	0.870225	0.261025
C741	C	0.995075	0.849200	0.280425
H494	H	0.968025	0.786750	0.269775
C742	C	0.916125	0.848875	0.308650
H495	H	0.894825	0.841350	0.325175
C743	C	0.895650	0.869925	0.290650
H496	H	0.861150	0.876875	0.294775
C744	C	0.926975	0.880750	0.266150
Ni63	Ni	0.873700	0.938490	0.709858
O249	O	0.810325	0.837405	0.598225
O250	O	0.766625	0.779950	0.618550
N125	N	0.906975	0.960725	0.674050
N126	N	0.840275	0.911525	0.678775
C745	C	0.896950	0.989825	0.628350
H497	H	0.875050	0.996550	0.611025
C746	C	0.948300	0.999500	0.633425
C747	C	0.979275	0.988650	0.658850
C748	C	0.851925	0.879775	0.636025
H498	H	0.873775	0.872750	0.619450
C749	C	0.870075	0.900800	0.655425
H499	H	0.904775	0.907825	0.651975
C750	C	0.877875	0.970225	0.648750
H500	H	0.843025	0.963250	0.644775
C751	C	0.957125	0.969425	0.678425
H501	H	0.978325	0.962075	0.695650
C752	C	0.791125	0.901125	0.683650
H502	H	0.769825	0.908650	0.700175
C753	C	0.770650	0.880075	0.665650
C754	C	0.801975	0.869250	0.641150
C755	C	0.780500	0.846550	0.620375
O251	O	0.935325	0.912595	0.723225
O252	O	0.813725	0.966730	0.717550
O253	O	0.859225	0.911942	0.749325
O254	O	0.891625	0.970050	0.743550
N127	N	0.781975	0.789275	0.549050
C756	C	0.771950	0.760175	0.503350
C757	C	0.823300	0.750500	0.508425
C758	C	0.854275	0.761350	0.533850
H503	H	0.890050	0.755550	0.537625
H504	H	0.998775	0.877250	0.744450
H505	H	0.779775	0.842175	0.526975
C759	C	0.752875	0.779775	0.523750
C760	C	0.832125	0.780575	0.553425
H506	H	0.853325	0.787925	0.570650
C761	C	0.844500	0.977675	0.738750
C762	C	0.905500	0.903450	0.745375
O255	O	0.938725	0.783270	0.842550
O256	O	0.984225	0.838058	0.874325
H507	H	0.765050	0.994450	0.912625
H508	H	0.986150	0.873125	0.919775
C763	C	0.969500	0.772325	0.863750
Ni64	Ni	0.998700	0.811510	0.834858
N128	N	0.965275	0.838475	0.803775
H509	H	0.750050	0.753450	0.986025
C764	C	0.976925	0.870225	0.761025
C765	C	0.995075	0.849200	0.780425
H510	H	0.968025	0.786750	0.769775
C766	C	0.916125	0.848875	0.808650
H511	H	0.894825	0.841350	0.825175
C767	C	0.895650	0.869925	0.790650
H512	H	0.861150	0.876875	0.794775
C768	C	0.926975	0.880750	0.766150

loop_
_geom_bond_atom_site_label_1
_geom_bond_atom_site_label_2
_geom_bond_distance
Ni1	N1	0.05370
Ni1	N2	0.05301
Ni1	O3	0.06817
Ni1	O4	0.06674
Ni1	O5	0.04972
Ni1	O6	0.04952
O1	C11	0.03826
N1	C6	0.03971
N1	C7	0.05109
N2	C5	0.03935
N2	C8	0.05047
C1	H1	0.02872
C1	C2	0.05250
C1	C6	0.03412
C2	C3	0.04152
C2	C49	0.03684
C3	C7	0.03526
C3	H129	0.03644
C4	H2	0.02831
C4	C5	0.03388
C4	C10	0.05130
C5	H3	0.03557
C6	H4	0.03576
C7	H5	0.02829
C8	H6	0.02799
C8	C9	0.03444
C9	C10	0.04122
C10	C11	0.03752
O3	C18	0.03826
O4	C17	0.03894
O5	C18	0.04721
O6	C17	0.04798
N3	C15	0.03971
N3	C16	0.05109
C12	C13	0.05250
C12	C15	0.03412
C13	C14	0.04152
C14	H7	0.03644
C14	C16	0.03526
H8	C20	0.02831
C16	H10	0.02829
C17	C67	0.03684
C18	C24	0.03752
O7	C19	0.03894
O7	Ni2	0.06674
O8	Ni2	0.04972
O8	C209	0.04721
H12	C207	0.03543
C19	O68	0.04798
Ni2	N4	0.05301
Ni2	O67	0.06817
Ni2	O68	0.04952
Ni2	N36	0.05370
N4	C21	0.03935
N4	C22	0.05047
H13	C36	0.02872
C20	C21	0.03388
C20	C24	0.05130
C21	H143	0.03557
H14	C213	0.03576
C22	H15	0.02799
C22	C23	0.03444
C23	H16	0.03543
C23	C24	0.04122
Ni3	N5	0.05370
Ni3	N6	0.05301
Ni3	O11	0.06817
Ni3	O12	0.06674
Ni3	O13	0.04972
Ni3	O14	0.04952
O9	C35	0.03826
N5	C30	0.03971
N5	C31	0.05109
N6	C29	0.03935
N6	C32	0.05047
C25	H17	0.02872
C25	C26	0.05250
C25	C30	0.03412
C26	C27	0.04152
C26	C73	0.03684
C27	C31	0.03526
C27	H145	0.03644
C28	H18	0.02831
C28	C29	0.03388
C28	C34	0.05130
C29	H19	0.03557
C30	H20	0.03576
C31	H21	0.02829
C32	H22	0.02799
C32	C33	0.03444
C33	C34	0.04122
C34	C35	0.03752
O11	C42	0.03826
O12	C41	0.03894
O13	C42	0.04721
O14	C41	0.04798
N7	C39	0.03971
N7	C40	0.05109
C36	C37	0.05250
C36	C39	0.03412
C37	C38	0.04152
C38	H23	0.03644
C38	C40	0.03526
H24	C44	0.02831
C40	H26	0.02829
C41	C91	0.03684
C42	C48	0.03752
O15	C43	0.03894
O15	Ni4	0.06674
O16	Ni4	0.04972
O16	C233	0.04721
H28	C231	0.03543
C43	O76	0.04798
Ni4	N8	0.05301
Ni4	O75	0.06817
Ni4	O76	0.04952
Ni4	N40	0.05370
N8	C45	0.03935
N8	C46	0.05047
C44	C45	0.03388
C44	C48	0.05130
C45	H159	0.03557
H30	C237	0.03576
C46	H31	0.02799
C46	C47	0.03444
C47	H32	0.03543
C47	C48	0.04122
O17	C49	0.03894
O17	Ni5	0.06674
O18	Ni5	0.04972
O18	C251	0.04721
H34	C249	0.03543
C49	O82	0.04798
Ni5	N9	0.05301
Ni5	O81	0.06817
Ni5	O82	0.04952
Ni5	N43	0.05370
N9	C51	0.03935
N9	C52	0.05047
H35	C66	0.02872
C50	C51	0.03388
C50	C54	0.05130
C51	H169	0.03557
H36	C255	0.03576
C52	H37	0.02799
C52	C53	0.03444
C53	H38	0.03543
C53	C54	0.04122
Ni6	N10	0.05370
Ni6	N11	0.05301
Ni6	O21	0.06817
Ni6	O22	0.06674
Ni6	O23	0.04972
Ni6	O24	0.04952
O19	C65	0.03826
N10	C60	0.03971
N10	C61	0.05109
N11	C59	0.03935
N11	C62	0.05047
C55	H39	0.02872
C55	C56	0.05250
C55	C60	0.03412
C56	C57	0.04152
C56	C115	0.03684
C57	C61	0.03526
C57	H171	0.03644
C58	H40	0.02831
C58	C59	0.03388
C58	C64	0.05130
C59	H41	0.03557
C60	H42	0.03576
C61	H43	0.02829
C62	H44	0.02799
C62	C63	0.03444
C63	C64	0.04122
C64	C65	0.03752
O21	C72	0.03826
O22	C71	0.03894
O23	C72	0.04721
O24	C71	0.04798
N12	C69	0.03971
N12	C70	0.05109
C66	C67	0.05250
C66	C69	0.03412
C67	C68	0.04152
C68	H45	0.03644
C68	C70	0.03526
H46	C74	0.02831
C70	H48	0.02829
C71	C133	0.03684
C72	C78	0.03752
O25	C73	0.03894
O25	Ni7	0.06674
O26	Ni7	0.04972
O26	C275	0.04721
H50	C273	0.03543
C73	O90	0.04798
Ni7	N13	0.05301
Ni7	O89	0.06817
Ni7	O90	0.04952
Ni7	N47	0.05370
N13	C75	0.03935
N13	C76	0.05047
H51	C90	0.02872
C74	C75	0.03388
C74	C78	0.05130
C75	H185	0.03557
H52	C279	0.03576
C76	H53	0.02799
C76	C77	0.03444
C77	H54	0.03543
C77	C78	0.04122
Ni8	N14	0.05370
Ni8	N15	0.05301
Ni8	O29	0.06817
Ni8	O30	0.06674
Ni8	O31	0.04972
Ni8	O32	0.04952
O27	C89	0.03826
N14	C84	0.03971
N14	C85	0.05109
N15	C83	0.03935
N15	C86	0.05047
C79	H55	0.02872
C79	C80	0.05250
C79	C84	0.03412
C80	C81	0.04152
C80	C139	0.03684
C81	C85	0.03526
C81	H187	0.03644
C82	H56	0.02831
C82	C83	0.03388
C82	C88	0.05130
C83	H57	0.03557
C84	H58	0.03576
C85	H59	0.02829
C86	H60	0.02799
C86	C87	0.03444
C87	C88	0.04122
C88	C89	0.03752
O29	C96	0.03826
O30	C95	0.03894
O31	C96	0.04721
O32	C95	0.04798
N16	C93	0.03971
N16	C94	0.05109
C90	C91	0.05250
C90	C93	0.03412
C91	C92	0.04152
C92	H61	0.03644
C92	C94	0.03526
C94	H64	0.02829
Ni9	N17	0.05370
Ni9	N18	0.05301
Ni9	O35	0.06817
Ni9	O36	0.06674
Ni9	O37	0.04972
Ni9	O38	0.04952
O33	C107	0.03826
N17	C102	0.03971
N17	C103	0.05109
N18	C101	0.03935
N18	C104	0.05047
C97	H65	0.02872
C97	C98	0.05250
C97	C102	0.03412
C98	C99	0.04152
C98	C145	0.03684
C99	C103	0.03526
C99	H193	0.03644
C100	H66	0.02831
C100	C101	0.03388
C100	C106	0.05130
C101	H67	0.03557
C102	H68	0.03576
C103	H69	0.02829
C104	H70	0.02799
C104	C105	0.03444
C105	C106	0.04122
C106	C107	0.03752
O35	C114	0.03826
O36	C113	0.03894
O37	C114	0.04721
O38	C113	0.04798
N19	C111	0.03971
N19	C112	0.05109
C108	C109	0.05250
C108	C111	0.03412
C109	C110	0.04152
C110	H71	0.03644
C110	C112	0.03526
H72	C116	0.02831
C112	H74	0.02829
C113	C163	0.03684
C114	C120	0.03752
O39	C115	0.03894
O39	Ni10	0.06674
O40	Ni10	0.04972
O40	C305	0.04721
H76	C303	0.03543
C115	O100	0.04798
Ni10	N20	0.05301
Ni10	O99	0.06817
Ni10	O100	0.04952
Ni10	N52	0.05370
N20	C117	0.03935
N20	C118	0.05047
H77	C132	0.02872
C116	C117	0.03388
C116	C120	0.05130
C117	H207	0.03557
H78	C309	0.03576
C118	H79	0.02799
C118	C119	0.03444
C119	H80	0.03543
C119	C120	0.04122
Ni11	N21	0.05370
Ni11	N22	0.05301
Ni11	O43	0.06817
Ni11	O44	0.06674
Ni11	O45	0.04972
Ni11	O46	0.04952
O41	C131	0.03826
N21	C126	0.03971
N21	C127	0.05109
N22	C125	0.03935
N22	C128	0.05047
C121	H81	0.02872
C121	C122	0.05250
C121	C126	0.03412
C122	C123	0.04152
C122	C169	0.03684
C123	C127	0.03526
C123	H209	0.03644
C124	H82	0.02831
C124	C125	0.03388
C124	C130	0.05130
C125	H83	0.03557
C126	H84	0.03576
C127	H85	0.02829
C128	H86	0.02799
C128	C129	0.03444
C129	C130	0.04122
C130	C131	0.03752
O43	C138	0.03826
O44	C137	0.03894
O45	C138	0.04721
O46	C137	0.04798
N23	C135	0.03971
N23	C136	0.05109
C132	C133	0.05250
C132	C135	0.03412
C133	C134	0.04152
C134	H87	0.03644
C134	C136	0.03526
H88	C140	0.02831
C136	H90	0.02829
C137	C187	0.03684
C138	C144	0.03752
O47	C139	0.03894
O47	Ni12	0.06674
O48	Ni12	0.04972
O48	C329	0.04721
H92	C327	0.03543
C139	O108	0.04798
Ni12	N24	0.05301
Ni12	O107	0.06817
Ni12	O108	0.04952
Ni12	N56	0.05370
N24	C141	0.03935
N24	C142	0.05047
C140	C141	0.03388
C140	C144	0.05130
C141	H223	0.03557
H94	C333	0.03576
C142	H95	0.02799
C142	C143	0.03444
C143	H96	0.03543
C143	C144	0.04122
O49	C145	0.03894
O49	Ni13	0.06674
O50	Ni13	0.04972
O50	C347	0.04721
H98	C345	0.03543
C145	O114	0.04798
Ni13	N25	0.05301
Ni13	O113	0.06817
Ni13	O114	0.04952
Ni13	N59	0.05370
N25	C147	0.03935
N25	C148	0.05047
H99	C162	0.02872
C146	C147	0.03388
C146	C150	0.05130
C147	H233	0.03557
H100	C351	0.03576
C148	H101	0.02799
C148	C149	0.03444
C149	H102	0.03543
C149	C150	0.04122
Ni14	N26	0.05370
Ni14	N27	0.05301
Ni14	O53	0.06817
Ni14	O54	0.06674
Ni14	O55	0.04972
Ni14	O56	0.04952
O51	C161	0.03826
N26	C156	0.03971
N26	C157	0.05109
N27	C155	0.03935
N27	C158	0.05047
C151	H103	0.02872
C151	C152	0.05250
C151	C156	0.03412
C152	C153	0.04152
C153	C157	0.03526
C153	H235	0.03644
C154	H104	0.02831
C154	C155	0.03388
C154	C160	0.05130
C155	H105	0.03557
C156	H106	0.03576
C157	H107	0.02829
C158	H108	0.02799
C158	C159	0.03444
C159	C160	0.04122
C160	C161	0.03752
O53	C168	0.03826
O54	C167	0.03894
O55	C168	0.04721
O56	C167	0.04798
N28	C165	0.03971
N28	C166	0.05109
C162	C163	0.05250
C162	C165	0.03412
C163	C164	0.04152
C164	H109	0.03644
C164	C166	0.03526
H110	C170	0.02831
C166	H112	0.02829
C168	C174	0.03752
O57	C169	0.03894
O57	Ni15	0.06674
O58	Ni15	0.04972
O58	C371	0.04721
H114	C369	0.03543
C169	O122	0.04798
Ni15	N29	0.05301
Ni15	O121	0.06817
Ni15	O122	0.04952
Ni15	N63	0.05370
N29	C171	0.03935
N29	C172	0.05047
H115	C186	0.02872
C170	C171	0.03388
C170	C174	0.05130
C171	H249	0.03557
H116	C375	0.03576
C172	H117	0.02799
C172	C173	0.03444
C173	H118	0.03543
C173	C174	0.04122
Ni16	N30	0.05370
Ni16	N31	0.05301
Ni16	O61	0.06817
Ni16	O62	0.06674
Ni16	O63	0.04972
Ni16	O64	0.04952
O59	C185	0.03826
N30	C180	0.03971
N30	C181	0.05109
N31	C179	0.03935
N31	C182	0.05047
C175	H119	0.02872
C175	C176	0.05250
C175	C180	0.03412
C176	C177	0.04152
C177	C181	0.03526
C177	H251	0.03644
C178	H120	0.02831
C178	C179	0.03388
C178	C184	0.05130
C179	H121	0.03557
C180	H122	0.03576
C181	H123	0.02829
C182	H124	0.02799
C182	C183	0.03444
C183	C184	0.04122
C184	C185	0.03752
O61	C192	0.03826
O62	C191	0.03894
O63	C192	0.04721
O64	C191	0.04798
N32	C189	0.03971
N32	C190	0.05109
C186	C187	0.05250
C186	C189	0.03412
C187	C188	0.04152
C188	H125	0.03644
C188	C190	0.03526
C190	H128	0.02829
O65	C193	0.03894
O65	Ni17	0.06674
O66	Ni17	0.04972
O66	C395	0.04721
H130	C393	0.03543
C193	O130	0.04798
Ni17	N33	0.05301
Ni17	O129	0.06817
Ni17	O130	0.04952
Ni17	N67	0.05370
N33	C195	0.03935
N33	C196	0.05047
H131	C210	0.02872
C194	C195	0.03388
C194	C198	0.05130
C195	H265	0.03557
H132	C399	0.03576
C196	H133	0.02799
C196	C197	0.03444
C197	H134	0.03543
C197	C198	0.04122
Ni18	N34	0.05370
Ni18	N35	0.05301
Ni18	O69	0.06817
Ni18	O70	0.06674
Ni18	O71	0.04972
Ni18	O72	0.04952
O67	C209	0.03826
N34	C204	0.03971
N34	C205	0.05109
N35	C203	0.03935
N35	C206	0.05047
C199	H135	0.02872
C199	C200	0.05250
C199	C204	0.03412
C200	C201	0.04152
C200	C259	0.03684
C201	C205	0.03526
C201	H267	0.03644
C202	H136	0.02831
C202	C203	0.03388
C202	C208	0.05130
C203	H137	0.03557
C204	H138	0.03576
C205	H139	0.02829
C206	H140	0.02799
C206	C207	0.03444
C207	C208	0.04122
C208	C209	0.03752
O69	C216	0.03826
O70	C215	0.03894
O71	C216	0.04721
O72	C215	0.04798
N36	C213	0.03971
N36	C214	0.05109
C210	C211	0.05250
C210	C213	0.03412
C211	C212	0.04152
C212	H141	0.03644
C212	C214	0.03526
H142	C218	0.02831
C214	H144	0.02829
C215	C277	0.03684
C216	C222	0.03752
O73	C217	0.03894
O73	Ni19	0.06674
O74	Ni19	0.04972
O74	C419	0.04721
H146	C417	0.03543
C217	O138	0.04798
Ni19	N37	0.05301
Ni19	O137	0.06817
Ni19	O138	0.04952
Ni19	N71	0.05370
N37	C219	0.03935
N37	C220	0.05047
H147	C234	0.02872
C218	C219	0.03388
C218	C222	0.05130
C219	H281	0.03557
H148	C423	0.03576
C220	H149	0.02799
C220	C221	0.03444
C221	H150	0.03543
C221	C222	0.04122
Ni20	N38	0.05370
Ni20	N39	0.05301
Ni20	O77	0.06817
Ni20	O78	0.06674
Ni20	O79	0.04972
Ni20	O80	0.04952
O75	C233	0.03826
N38	C228	0.03971
N38	C229	0.05109
N39	C227	0.03935
N39	C230	0.05047
C223	H151	0.02872
C223	C224	0.05250
C223	C228	0.03412
C224	C225	0.04152
C224	C283	0.03684
C225	C229	0.03526
C225	H283	0.03644
C226	H152	0.02831
C226	C227	0.03388
C226	C232	0.05130
C227	H153	0.03557
C228	H154	0.03576
C229	H155	0.02829
C230	H156	0.02799
C230	C231	0.03444
C231	C232	0.04122
C232	C233	0.03752
O77	C240	0.03826
O78	C239	0.03894
O79	C240	0.04721
O80	C239	0.04798
N40	C237	0.03971
N40	C238	0.05109
C234	C235	0.05250
C234	C237	0.03412
C235	C236	0.04152
C236	H157	0.03644
C236	C238	0.03526
C238	H160	0.02829
Ni21	N41	0.05370
Ni21	N42	0.05301
Ni21	O83	0.06817
Ni21	O84	0.06674
Ni21	O85	0.04972
Ni21	O86	0.04952
O81	C251	0.03826
N41	C246	0.03971
N41	C247	0.05109
N42	C245	0.03935
N42	C248	0.05047
C241	H161	0.02872
C241	C242	0.05250
C241	C246	0.03412
C242	C243	0.04152
C242	C289	0.03684
C243	C247	0.03526
C243	H289	0.03644
C244	H162	0.02831
C244	C245	0.03388
C244	C250	0.05130
C245	H163	0.03557
C246	H164	0.03576
C247	H165	0.02829
C248	H166	0.02799
C248	C249	0.03444
C249	C250	0.04122
C250	C251	0.03752
O83	C258	0.03826
O84	C257	0.03894
O85	C258	0.04721
O86	C257	0.04798
N43	C255	0.03971
N43	C256	0.05109
C252	C253	0.05250
C252	C255	0.03412
C253	C254	0.04152
C254	H167	0.03644
C254	C256	0.03526
H168	C260	0.02831
C256	H170	0.02829
C257	C307	0.03684
C258	C264	0.03752
O87	C259	0.03894
O87	Ni22	0.06674
O88	Ni22	0.04972
O88	C449	0.04721
H172	C447	0.03543
C259	O148	0.04798
Ni22	N44	0.05301
Ni22	O147	0.06817
Ni22	O148	0.04952
Ni22	N76	0.05370
N44	C261	0.03935
N44	C262	0.05047
H173	C276	0.02872
C260	C261	0.03388
C260	C264	0.05130
C261	H303	0.03557
H174	C453	0.03576
C262	H175	0.02799
C262	C263	0.03444
C263	H176	0.03543
C263	C264	0.04122
Ni23	N45	0.05370
Ni23	N46	0.05301
Ni23	O91	0.06817
Ni23	O92	0.06674
Ni23	O93	0.04972
Ni23	O94	0.04952
O89	C275	0.03826
N45	C270	0.03971
N45	C271	0.05109
N46	C269	0.03935
N46	C272	0.05047
C265	H177	0.02872
C265	C266	0.05250
C265	C270	0.03412
C266	C267	0.04152
C266	C313	0.03684
C267	C271	0.03526
C267	H305	0.03644
C268	H178	0.02831
C268	C269	0.03388
C268	C274	0.05130
C269	H179	0.03557
C270	H180	0.03576
C271	H181	0.02829
C272	H182	0.02799
C272	C273	0.03444
C273	C274	0.04122
C274	C275	0.03752
O91	C282	0.03826
O92	C281	0.03894
O93	C282	0.04721
O94	C281	0.04798
N47	C279	0.03971
N47	C280	0.05109
C276	C277	0.05250
C276	C279	0.03412
C277	C278	0.04152
C278	H183	0.03644
C278	C280	0.03526
H184	C284	0.02831
C280	H186	0.02829
C281	C331	0.03684
C282	C288	0.03752
O95	C283	0.03894
O95	Ni24	0.06674
O96	Ni24	0.04972
O96	C473	0.04721
H188	C471	0.03543
C283	O156	0.04798
Ni24	N48	0.05301
Ni24	O155	0.06817
Ni24	O156	0.04952
Ni24	N80	0.05370
N48	C285	0.03935
N48	C286	0.05047
C284	C285	0.03388
C284	C288	0.05130
C285	H319	0.03557
H190	C477	0.03576
C286	H191	0.02799
C286	C287	0.03444
C287	H192	0.03543
C287	C288	0.04122
O97	C289	0.03894
O97	Ni25	0.06674
O98	Ni25	0.04972
O98	C491	0.04721
H194	C489	0.03543
C289	O162	0.04798
Ni25	N49	0.05301
Ni25	O161	0.06817
Ni25	O162	0.04952
Ni25	N83	0.05370
N49	C291	0.03935
N49	C292	0.05047
H195	C306	0.02872
C290	C291	0.03388
C290	C294	0.05130
C291	H329	0.03557
H196	C495	0.03576
C292	H197	0.02799
C292	C293	0.03444
C293	H198	0.03543
C293	C294	0.04122
Ni26	N50	0.05370
Ni26	N51	0.05301
Ni26	O101	0.06817
Ni26	O102	0.06674
Ni26	O103	0.04972
Ni26	O104	0.04952
O99	C305	0.03826
N50	C300	0.03971
N50	C301	0.05109
N51	C299	0.03935
N51	C302	0.05047
C295	H199	0.02872
C295	C296	0.05250
C295	C300	0.03412
C296	C297	0.04152
C296	C355	0.03684
C297	C301	0.03526
C297	H331	0.03644
C298	H200	0.02831
C298	C299	0.03388
C298	C304	0.05130
C299	H201	0.03557
C300	H202	0.03576
C301	H203	0.02829
C302	H204	0.02799
C302	C303	0.03444
C303	C304	0.04122
C304	C305	0.03752
O101	C312	0.03826
O102	C311	0.03894
O103	C312	0.04721
O104	C311	0.04798
N52	C309	0.03971
N52	C310	0.05109
C306	C307	0.05250
C306	C309	0.03412
C307	C308	0.04152
C308	H205	0.03644
C308	C310	0.03526
H206	C314	0.02831
C310	H208	0.02829
C311	C373	0.03684
C312	C318	0.03752
O105	C313	0.03894
O105	Ni27	0.06674
O106	Ni27	0.04972
O106	C515	0.04721
H210	C513	0.03543
C313	O170	0.04798
Ni27	N53	0.05301
Ni27	O169	0.06817
Ni27	O170	0.04952
Ni27	N87	0.05370
N53	C315	0.03935
N53	C316	0.05047
H211	C330	0.02872
C314	C315	0.03388
C314	C318	0.05130
C315	H345	0.03557
H212	C519	0.03576
C316	H213	0.02799
C316	C317	0.03444
C317	H214	0.03543
C317	C318	0.04122
Ni28	N54	0.05370
Ni28	N55	0.05301
Ni28	O109	0.06817
Ni28	O110	0.06674
Ni28	O111	0.04972
Ni28	O112	0.04952
O107	C329	0.03826
N54	C324	0.03971
N54	C325	0.05109
N55	C323	0.03935
N55	C326	0.05047
C319	H215	0.02872
C319	C320	0.05250
C319	C324	0.03412
C320	C321	0.04152
C320	C379	0.03684
C321	C325	0.03526
C321	H347	0.03644
C322	H216	0.02831
C322	C323	0.03388
C322	C328	0.05130
C323	H217	0.03557
C324	H218	0.03576
C325	H219	0.02829
C326	H220	0.02799
C326	C327	0.03444
C327	C328	0.04122
C328	C329	0.03752
O109	C336	0.03826
O110	C335	0.03894
O111	C336	0.04721
O112	C335	0.04798
N56	C333	0.03971
N56	C334	0.05109
C330	C331	0.05250
C330	C333	0.03412
C331	C332	0.04152
C332	H221	0.03644
C332	C334	0.03526
C334	H224	0.02829
Ni29	N57	0.05370
Ni29	N58	0.05301
Ni29	O115	0.06817
Ni29	O116	0.06674
Ni29	O117	0.04972
Ni29	O118	0.04952
O113	C347	0.03826
N57	C342	0.03971
N57	C343	0.05109
N58	C341	0.03935
N58	C344	0.05047
C337	H225	0.02872
C337	C338	0.05250
C337	C342	0.03412
C338	C339	0.04152
C339	C343	0.03526
C339	H353	0.03644
C340	H226	0.02831
C340	C341	0.03388
C340	C346	0.05130
C341	H227	0.03557
C342	H228	0.03576
C343	H229	0.02829
C344	H230	0.02799
C344	C345	0.03444
C345	C346	0.04122
C346	C347	0.03752
O115	C354	0.03826
O116	C353	0.03894
O117	C354	0.04721
O118	C353	0.04798
N59	C351	0.03971
N59	C352	0.05109
C348	C349	0.05250
C348	C351	0.03412
C349	C350	0.04152
C350	H231	0.03644
C350	C352	0.03526
H232	C356	0.02831
C352	H234	0.02829
C354	C360	0.03752
O119	C355	0.03894
O119	Ni30	0.06674
O120	Ni30	0.04972
O120	C545	0.04721
H236	C543	0.03543
C355	O180	0.04798
Ni30	N60	0.05301
Ni30	O179	0.06817
Ni30	O180	0.04952
Ni30	N92	0.05370
N60	C357	0.03935
N60	C358	0.05047
H237	C372	0.02872
C356	C357	0.03388
C356	C360	0.05130
C357	H367	0.03557
H238	C549	0.03576
C358	H239	0.02799
C358	C359	0.03444
C359	H240	0.03543
C359	C360	0.04122
Ni31	N61	0.05370
Ni31	N62	0.05301
Ni31	O123	0.06817
Ni31	O124	0.06674
Ni31	O125	0.04972
Ni31	O126	0.04952
O121	C371	0.03826
N61	C366	0.03971
N61	C367	0.05109
N62	C365	0.03935
N62	C368	0.05047
C361	H241	0.02872
C361	C362	0.05250
C361	C366	0.03412
C362	C363	0.04152
C363	C367	0.03526
C363	H369	0.03644
C364	H242	0.02831
C364	C365	0.03388
C364	C370	0.05130
C365	H243	0.03557
C366	H244	0.03576
C367	H245	0.02829
C368	H246	0.02799
C368	C369	0.03444
C369	C370	0.04122
C370	C371	0.03752
O123	C378	0.03826
O124	C377	0.03894
O125	C378	0.04721
O126	C377	0.04798
N63	C375	0.03971
N63	C376	0.05109
C372	C373	0.05250
C372	C375	0.03412
C373	C374	0.04152
C374	H247	0.03644
C374	C376	0.03526
H248	C380	0.02831
C376	H250	0.02829
C378	C384	0.03752
O127	C379	0.03894
O127	Ni32	0.06674
O128	Ni32	0.04972
O128	C569	0.04721
H252	C567	0.03543
C379	O188	0.04798
Ni32	N64	0.05301
Ni32	O187	0.06817
Ni32	O188	0.04952
Ni32	N96	0.05370
N64	C381	0.03935
N64	C382	0.05047
C380	C381	0.03388
C380	C384	0.05130
C381	H383	0.03557
H254	C573	0.03576
C382	H255	0.02799
C382	C383	0.03444
C383	H256	0.03543
C383	C384	0.04122
Ni33	N65	0.05370
Ni33	N66	0.05301
Ni33	O131	0.06817
Ni33	O132	0.06674
Ni33	O133	0.04972
Ni33	O134	0.04952
O129	C395	0.03826
N65	C390	0.03971
N65	C391	0.05109
N66	C389	0.03935
N66	C392	0.05047
C385	H257	0.02872
C385	C386	0.05250
C385	C390	0.03412
C386	C387	0.04152
C386	C433	0.03684
C387	C391	0.03526
C387	H385	0.03644
C388	H258	0.02831
C388	C389	0.03388
C388	C394	0.05130
C389	H259	0.03557
C390	H260	0.03576
C391	H261	0.02829
C392	H262	0.02799
C392	C393	0.03444
C393	C394	0.04122
C394	C395	0.03752
O131	C402	0.03826
O132	C401	0.03894
O133	C402	0.04721
O134	C401	0.04798
N67	C399	0.03971
N67	C400	0.05109
C396	C397	0.05250
C396	C399	0.03412
C397	C398	0.04152
C398	H263	0.03644
C398	C400	0.03526
H264	C404	0.02831
C400	H266	0.02829
C401	C451	0.03684
C402	C408	0.03752
O135	C403	0.03894
O135	Ni34	0.06674
O136	Ni34	0.04972
O136	C593	0.04721
H268	C591	0.03543
C403	O196	0.04798
Ni34	N68	0.05301
Ni34	O195	0.06817
Ni34	O196	0.04952
Ni34	N100	0.05370
N68	C405	0.03935
N68	C406	0.05047
H269	C420	0.02872
C404	C405	0.03388
C404	C408	0.05130
C405	H399	0.03557
H270	C597	0.03576
C406	H271	0.02799
C406	C407	0.03444
C407	H272	0.03543
C407	C408	0.04122
Ni35	N69	0.05370
Ni35	N70	0.05301
Ni35	O139	0.06817
Ni35	O140	0.06674
Ni35	O141	0.04972
Ni35	O142	0.04952
O137	C419	0.03826
N69	C414	0.03971
N69	C415	0.05109
N70	C413	0.03935
N70	C416	0.05047
C409	H273	0.02872
C409	C410	0.05250
C409	C414	0.03412
C410	C411	0.04152
C410	C457	0.03684
C411	C415	0.03526
C411	H401	0.03644
C412	H274	0.02831
C412	C413	0.03388
C412	C418	0.05130
C413	H275	0.03557
C414	H276	0.03576
C415	H277	0.02829
C416	H278	0.02799
C416	C417	0.03444
C417	C418	0.04122
C418	C419	0.03752
O139	C426	0.03826
O140	C425	0.03894
O141	C426	0.04721
O142	C425	0.04798
N71	C423	0.03971
N71	C424	0.05109
C420	C421	0.05250
C420	C423	0.03412
C421	C422	0.04152
C422	H279	0.03644
C422	C424	0.03526
H280	C428	0.02831
C424	H282	0.02829
C425	C475	0.03684
C426	C432	0.03752
O143	C427	0.03894
O143	Ni36	0.06674
O144	Ni36	0.04972
O144	C617	0.04721
H284	C615	0.03543
C427	O204	0.04798
Ni36	N72	0.05301
Ni36	O203	0.06817
Ni36	O204	0.04952
Ni36	N104	0.05370
N72	C429	0.03935
N72	C430	0.05047
C428	C429	0.03388
C428	C432	0.05130
C429	H415	0.03557
H286	C621	0.03576
C430	H287	0.02799
C430	C431	0.03444
C431	H288	0.03543
C431	C432	0.04122
O145	C433	0.03894
O145	Ni37	0.06674
O146	Ni37	0.04972
O146	C635	0.04721
H290	C633	0.03543
C433	O210	0.04798
Ni37	N73	0.05301
Ni37	O209	0.06817
Ni37	O210	0.04952
Ni37	N107	0.05370
N73	C435	0.03935
N73	C436	0.05047
H291	C450	0.02872
C434	C435	0.03388
C434	C438	0.05130
C435	H425	0.03557
H292	C639	0.03576
C436	H293	0.02799
C436	C437	0.03444
C437	H294	0.03543
C437	C438	0.04122
Ni38	N74	0.05370
Ni38	N75	0.05301
Ni38	O149	0.06817
Ni38	O150	0.06674
Ni38	O151	0.04972
Ni38	O152	0.04952
O147	C449	0.03826
N74	C444	0.03971
N74	C445	0.05109
N75	C443	0.03935
N75	C446	0.05047
C439	H295	0.02872
C439	C440	0.05250
C439	C444	0.03412
C440	C441	0.04152
C440	C499	0.03684
C441	C445	0.03526
C441	H427	0.03644
C442	H296	0.02831
C442	C443	0.03388
C442	C448	0.05130
C443	H297	0.03557
C444	H298	0.03576
C445	H299	0.02829
C446	H300	0.02799
C446	C447	0.03444
C447	C448	0.04122
C448	C449	0.03752
O149	C456	0.03826
O150	C455	0.03894
O151	C456	0.04721
O152	C455	0.04798
N76	C453	0.03971
N76	C454	0.05109
C450	C451	0.05250
C450	C453	0.03412
C451	C452	0.04152
C452	H301	0.03644
C452	C454	0.03526
H302	C458	0.02831
C454	H304	0.02829
C455	C517	0.03684
C456	C462	0.03752
O153	C457	0.03894
O153	Ni39	0.06674
O154	Ni39	0.04972
O154	C659	0.04721
H306	C657	0.03543
C457	O218	0.04798
Ni39	N77	0.05301
Ni39	O217	0.06817
Ni39	O218	0.04952
Ni39	N111	0.05370
N77	C459	0.03935
N77	C460	0.05047
H307	C474	0.02872
C458	C459	0.03388
C458	C462	0.05130
C459	H441	0.03557
H308	C663	0.03576
C460	H309	0.02799
C460	C461	0.03444
C461	H310	0.03543
C461	C462	0.04122
Ni40	N78	0.05370
Ni40	N79	0.05301
Ni40	O157	0.06817
Ni40	O158	0.06674
Ni40	O159	0.04972
Ni40	O160	0.04952
O155	C473	0.03826
N78	C468	0.03971
N78	C469	0.05109
N79	C467	0.03935
N79	C470	0.05047
C463	H311	0.02872
C463	C464	0.05250
C463	C468	0.03412
C464	C465	0.04152
C464	C523	0.03684
C465	C469	0.03526
C465	H443	0.03644
C466	H312	0.02831
C466	C467	0.03388
C466	C472	0.05130
C467	H313	0.03557
C468	H314	0.03576
C469	H315	0.02829
C470	H316	0.02799
C470	C471	0.03444
C471	C472	0.04122
C472	C473	0.03752
O157	C480	0.03826
O158	C479	0.03894
O159	C480	0.04721
O160	C479	0.04798
N80	C477	0.03971
N80	C478	0.05109
C474	C475	0.05250
C474	C477	0.03412
C475	C476	0.04152
C476	H317	0.03644
C476	C478	0.03526
C478	H320	0.02829
Ni41	N81	0.05370
Ni41	N82	0.05301
Ni41	O163	0.06817
Ni41	O164	0.06674
Ni41	O165	0.04972
Ni41	O166	0.04952
O161	C491	0.03826
N81	C486	0.03971
N81	C487	0.05109
N82	C485	0.03935
N82	C488	0.05047
C481	H321	0.02872
C481	C482	0.05250
C481	C486	0.03412
C482	C483	0.04152
C482	C529	0.03684
C483	C487	0.03526
C483	H449	0.03644
C484	H322	0.02831
C484	C485	0.03388
C484	C490	0.05130
C485	H323	0.03557
C486	H324	0.03576
C487	H325	0.02829
C488	H326	0.02799
C488	C489	0.03444
C489	C490	0.04122
C490	C491	0.03752
O163	C498	0.03826
O164	C497	0.03894
O165	C498	0.04721
O166	C497	0.04798
N83	C495	0.03971
N83	C496	0.05109
C492	C493	0.05250
C492	C495	0.03412
C493	C494	0.04152
C494	H327	0.03644
C494	C496	0.03526
H328	C500	0.02831
C496	H330	0.02829
C497	C547	0.03684
C498	C504	0.03752
O167	C499	0.03894
O167	Ni42	0.06674
O168	Ni42	0.04972
O168	C689	0.04721
H332	C687	0.03543
C499	O228	0.04798
Ni42	N84	0.05301
Ni42	O227	0.06817
Ni42	O228	0.04952
Ni42	N116	0.05370
N84	C501	0.03935
N84	C502	0.05047
H333	C516	0.02872
C500	C501	0.03388
C500	C504	0.05130
C501	H463	0.03557
H334	C693	0.03576
C502	H335	0.02799
C502	C503	0.03444
C503	H336	0.03543
C503	C504	0.04122
Ni43	N85	0.05370
Ni43	N86	0.05301
Ni43	O171	0.06817
Ni43	O172	0.06674
Ni43	O173	0.04972
Ni43	O174	0.04952
O169	C515	0.03826
N85	C510	0.03971
N85	C511	0.05109
N86	C509	0.03935
N86	C512	0.05047
C505	H337	0.02872
C505	C506	0.05250
C505	C510	0.03412
C506	C507	0.04152
C506	C553	0.03684
C507	C511	0.03526
C507	H465	0.03644
C508	H338	0.02831
C508	C509	0.03388
C508	C514	0.05130
C509	H339	0.03557
C510	H340	0.03576
C511	H341	0.02829
C512	H342	0.02799
C512	C513	0.03444
C513	C514	0.04122
C514	C515	0.03752
O171	C522	0.03826
O172	C521	0.03894
O173	C522	0.04721
O174	C521	0.04798
N87	C519	0.03971
N87	C520	0.05109
C516	C517	0.05250
C516	C519	0.03412
C517	C518	0.04152
C518	H343	0.03644
C518	C520	0.03526
H344	C524	0.02831
C520	H346	0.02829
C521	C571	0.03684
C522	C528	0.03752
O175	C523	0.03894
O175	Ni44	0.06674
O176	Ni44	0.04972
O176	C713	0.04721
H348	C711	0.03543
C523	O236	0.04798
Ni44	N88	0.05301
Ni44	O235	0.06817
Ni44	O236	0.04952
Ni44	N120	0.05370
N88	C525	0.03935
N88	C526	0.05047
C524	C525	0.03388
C524	C528	0.05130
C525	H479	0.03557
H350	C717	0.03576
C526	H351	0.02799
C526	C527	0.03444
C527	H352	0.03543
C527	C528	0.04122
O177	C529	0.03894
O177	Ni45	0.06674
O178	Ni45	0.04972
O178	C731	0.04721
H354	C729	0.03543
C529	O242	0.04798
Ni45	N89	0.05301
Ni45	O241	0.06817
Ni45	O242	0.04952
Ni45	N123	0.05370
N89	C531	0.03935
N89	C532	0.05047
H355	C546	0.02872
C530	C531	0.03388
C530	C534	0.05130
C531	H489	0.03557
H356	C735	0.03576
C532	H357	0.02799
C532	C533	0.03444
C533	H358	0.03543
C533	C534	0.04122
Ni46	N90	0.05370
Ni46	N91	0.05301
Ni46	O181	0.06817
Ni46	O182	0.06674
Ni46	O183	0.04972
Ni46	O184	0.04952
O179	C545	0.03826
N90	C540	0.03971
N90	C541	0.05109
N91	C539	0.03935
N91	C542	0.05047
C535	H359	0.02872
C535	C536	0.05250
C535	C540	0.03412
C536	C537	0.04152
C537	C541	0.03526
C537	H491	0.03644
C538	H360	0.02831
C538	C539	0.03388
C538	C544	0.05130
C539	H361	0.03557
C540	H362	0.03576
C541	H363	0.02829
C542	H364	0.02799
C542	C543	0.03444
C543	C544	0.04122
C544	C545	0.03752
O181	C552	0.03826
O182	C551	0.03894
O183	C552	0.04721
O184	C551	0.04798
N92	C549	0.03971
N92	C550	0.05109
C546	C547	0.05250
C546	C549	0.03412
C547	C548	0.04152
C548	H365	0.03644
C548	C550	0.03526
H366	C554	0.02831
C550	H368	0.02829
C552	C558	0.03752
O185	C553	0.03894
O185	Ni47	0.06674
O186	Ni47	0.04972
O186	C755	0.04721
H370	C753	0.03543
C553	O250	0.04798
Ni47	N93	0.05301
Ni47	O249	0.06817
Ni47	O250	0.04952
Ni47	N127	0.05370
N93	C555	0.03935
N93	C556	0.05047
H371	C570	0.02872
C554	C555	0.03388
C554	C558	0.05130
C555	H505	0.03557
H372	C759	0.03576
C556	H373	0.02799
C556	C557	0.03444
C557	H374	0.03543
C557	C558	0.04122
Ni48	N94	0.05370
Ni48	N95	0.05301
Ni48	O189	0.06817
Ni48	O190	0.06674
Ni48	O191	0.04972
Ni48	O192	0.04952
O187	C569	0.03826
N94	C564	0.03971
N94	C565	0.05109
N95	C563	0.03935
N95	C566	0.05047
C559	H375	0.02872
C559	C560	0.05250
C559	C564	0.03412
C560	C561	0.04152
C561	C565	0.03526
C561	H507	0.03644
C562	H376	0.02831
C562	C563	0.03388
C562	C568	0.05130
C563	H377	0.03557
C564	H378	0.03576
C565	H379	0.02829
C566	H380	0.02799
C566	C567	0.03444
C567	C568	0.04122
C568	C569	0.03752
O189	C576	0.03826
O190	C575	0.03894
O191	C576	0.04721
O192	C575	0.04798
N96	C573	0.03971
N96	C574	0.05109
C570	C571	0.05250
C570	C573	0.03412
C571	C572	0.04152
C572	H381	0.03644
C572	C574	0.03526
C574	H384	0.02829
O193	C577	0.03894
O193	Ni49	0.06674
O194	Ni49	0.04972
Ni49	N97	0.05301
N97	C579	0.03935
N97	C580	0.05047
H387	C594	0.02872
C578	C579	0.03388
C578	C582	0.05130
C580	H389	0.02799
C580	C581	0.03444
C581	H390	0.03543
C581	C582	0.04122
Ni50	N98	0.05370
Ni50	N99	0.05301
Ni50	O197	0.06817
Ni50	O198	0.06674
Ni50	O199	0.04972
Ni50	O200	0.04952
O195	C593	0.03826
N98	C588	0.03971
N98	C589	0.05109
N99	C587	0.03935
N99	C590	0.05047
C583	H391	0.02872
C583	C584	0.05250
C583	C588	0.03412
C584	C585	0.04152
C584	C643	0.03684
C585	C589	0.03526
C586	H392	0.02831
C586	C587	0.03388
C586	C592	0.05130
C587	H393	0.03557
C588	H394	0.03576
C589	H395	0.02829
C590	H396	0.02799
C590	C591	0.03444
C591	C592	0.04122
C592	C593	0.03752
O197	C600	0.03826
O198	C599	0.03894
O199	C600	0.04721
O200	C599	0.04798
N100	C597	0.03971
N100	C598	0.05109
C594	C595	0.05250
C594	C597	0.03412
C595	C596	0.04152
C596	H397	0.03644
C596	C598	0.03526
H398	C602	0.02831
C598	H400	0.02829
C599	C661	0.03684
C600	C606	0.03752
O201	C601	0.03894
O201	Ni51	0.06674
O202	Ni51	0.04972
Ni51	N101	0.05301
N101	C603	0.03935
N101	C604	0.05047
H403	C618	0.02872
C602	C603	0.03388
C602	C606	0.05130
C604	H405	0.02799
C604	C605	0.03444
C605	H406	0.03543
C605	C606	0.04122
Ni52	N102	0.05370
Ni52	N103	0.05301
Ni52	O205	0.06817
Ni52	O206	0.06674
Ni52	O207	0.04972
Ni52	O208	0.04952
O203	C617	0.03826
N102	C612	0.03971
N102	C613	0.05109
N103	C611	0.03935
N103	C614	0.05047
C607	H407	0.02872
C607	C608	0.05250
C607	C612	0.03412
C608	C609	0.04152
C608	C667	0.03684
C609	C613	0.03526
C610	H408	0.02831
C610	C611	0.03388
C610	C616	0.05130
C611	H409	0.03557
C612	H410	0.03576
C613	H411	0.02829
C614	H412	0.02799
C614	C615	0.03444
C615	C616	0.04122
C616	C617	0.03752
O205	C624	0.03826
O206	C623	0.03894
O207	C624	0.04721
O208	C623	0.04798
N104	C621	0.03971
N104	C622	0.05109
C618	C619	0.05250
C618	C621	0.03412
C619	C620	0.04152
C620	H413	0.03644
C620	C622	0.03526
C622	H416	0.02829
Ni53	N105	0.05370
Ni53	N106	0.05301
Ni53	O211	0.06817
Ni53	O212	0.06674
Ni53	O213	0.04972
Ni53	O214	0.04952
O209	C635	0.03826
N105	C630	0.03971
N105	C631	0.05109
N106	C629	0.03935
N106	C632	0.05047
C625	H417	0.02872
C625	C626	0.05250
C625	C630	0.03412
C626	C627	0.04152
C626	C673	0.03684
C627	C631	0.03526
C628	H418	0.02831
C628	C629	0.03388
C628	C634	0.05130
C629	H419	0.03557
C630	H420	0.03576
C631	H421	0.02829
C632	H422	0.02799
C632	C633	0.03444
C633	C634	0.04122
C634	C635	0.03752
O211	C642	0.03826
O212	C641	0.03894
O213	C642	0.04721
O214	C641	0.04798
N107	C639	0.03971
N107	C640	0.05109
C636	C637	0.05250
C636	C639	0.03412
C637	C638	0.04152
C638	H423	0.03644
C638	C640	0.03526
H424	C644	0.02831
C640	H426	0.02829
C641	C691	0.03684
C642	C648	0.03752
O215	C643	0.03894
O215	Ni54	0.06674
O216	Ni54	0.04972
Ni54	N108	0.05301
N108	C645	0.03935
N108	C646	0.05047
H429	C660	0.02872
C644	C645	0.03388
C644	C648	0.05130
C646	H431	0.02799
C646	C647	0.03444
C647	H432	0.03543
C647	C648	0.04122
Ni55	N109	0.05370
Ni55	N110	0.05301
Ni55	O219	0.06817
Ni55	O220	0.06674
Ni55	O221	0.04972
Ni55	O222	0.04952
O217	C659	0.03826
N109	C654	0.03971
N109	C655	0.05109
N110	C653	0.03935
N110	C656	0.05047
C649	H433	0.02872
C649	C650	0.05250
C649	C654	0.03412
C650	C651	0.04152
C650	C697	0.03684
C651	C655	0.03526
C652	H434	0.02831
C652	C653	0.03388
C652	C658	0.05130
C653	H435	0.03557
C654	H436	0.03576
C655	H437	0.02829
C656	H438	0.02799
C656	C657	0.03444
C657	C658	0.04122
C658	C659	0.03752
O219	C666	0.03826
O220	C665	0.03894
O221	C666	0.04721
O222	C665	0.04798
N111	C663	0.03971
N111	C664	0.05109
C660	C661	0.05250
C660	C663	0.03412
C661	C662	0.04152
C662	H439	0.03644
C662	C664	0.03526
H440	C668	0.02831
C664	H442	0.02829
C665	C715	0.03684
C666	C672	0.03752
O223	C667	0.03894
O223	Ni56	0.06674
O224	Ni56	0.04972
Ni56	N112	0.05301
N112	C669	0.03935
N112	C670	0.05047
C668	C669	0.03388
C668	C672	0.05130
C670	H447	0.02799
C670	C671	0.03444
C671	H448	0.03543
C671	C672	0.04122
O225	C673	0.03894
O225	Ni57	0.06674
O226	Ni57	0.04972
Ni57	N113	0.05301
N113	C675	0.03935
N113	C676	0.05047
H451	C690	0.02872
C674	C675	0.03388
C674	C678	0.05130
C676	H453	0.02799
C676	C677	0.03444
C677	H454	0.03543
C677	C678	0.04122
Ni58	N114	0.05370
Ni58	N115	0.05301
Ni58	O229	0.06817
Ni58	O230	0.06674
Ni58	O231	0.04972
Ni58	O232	0.04952
O227	C689	0.03826
N114	C684	0.03971
N114	C685	0.05109
N115	C683	0.03935
N115	C686	0.05047
C679	H455	0.02872
C679	C680	0.05250
C679	C684	0.03412
C680	C681	0.04152
C680	C739	0.03684
C681	C685	0.03526
C682	H456	0.02831
C682	C683	0.03388
C682	C688	0.05130
C683	H457	0.03557
C684	H458	0.03576
C685	H459	0.02829
C686	H460	0.02799
C686	C687	0.03444
C687	C688	0.04122
C688	C689	0.03752
O229	C696	0.03826
O230	C695	0.03894
O231	C696	0.04721
O232	C695	0.04798
N116	C693	0.03971
N116	C694	0.05109
C690	C691	0.05250
C690	C693	0.03412
C691	C692	0.04152
C692	H461	0.03644
C692	C694	0.03526
H462	C698	0.02831
C694	H464	0.02829
C695	C757	0.03684
C696	C702	0.03752
O233	C697	0.03894
O233	Ni59	0.06674
O234	Ni59	0.04972
Ni59	N117	0.05301
N117	C699	0.03935
N117	C700	0.05047
H467	C714	0.02872
C698	C699	0.03388
C698	C702	0.05130
C700	H469	0.02799
C700	C701	0.03444
C701	H470	0.03543
C701	C702	0.04122
Ni60	N118	0.05370
Ni60	N119	0.05301
Ni60	O237	0.06817
Ni60	O238	0.06674
Ni60	O239	0.04972
Ni60	O240	0.04952
O235	C713	0.03826
N118	C708	0.03971
N118	C709	0.05109
N119	C707	0.03935
N119	C710	0.05047
C703	H471	0.02872
C703	C704	0.05250
C703	C708	0.03412
C704	C705	0.04152
C704	C763	0.03684
C705	C709	0.03526
C706	H472	0.02831
C706	C707	0.03388
C706	C712	0.05130
C707	H473	0.03557
C708	H474	0.03576
C709	H475	0.02829
C710	H476	0.02799
C710	C711	0.03444
C711	C712	0.04122
C712	C713	0.03752
O237	C720	0.03826
O238	C719	0.03894
O239	C720	0.04721
O240	C719	0.04798
N120	C717	0.03971
N120	C718	0.05109
C714	C715	0.05250
C714	C717	0.03412
C715	C716	0.04152
C716	H477	0.03644
C716	C718	0.03526
C718	H480	0.02829
Ni61	N121	0.05370
Ni61	N122	0.05301
Ni61	O243	0.06817
Ni61	O244	0.06674
Ni61	O245	0.04972
Ni61	O246	0.04952
O241	C731	0.03826
N121	C726	0.03971
N121	C727	0.05109
N122	C725	0.03935
N122	C728	0.05047
C721	H481	0.02872
C721	C722	0.05250
C721	C726	0.03412
C722	C723	0.04152
C723	C727	0.03526
C724	H482	0.02831
C724	C725	0.03388
C724	C730	0.05130
C725	H483	0.03557
C726	H484	0.03576
C727	H485	0.02829
C728	H486	0.02799
C728	C729	0.03444
C729	C730	0.04122
C730	C731	0.03752
O243	C738	0.03826
O244	C737	0.03894
O245	C738	0.04721
O246	C737	0.04798
N123	C735	0.03971
N123	C736	0.05109
C732	C733	0.05250
C732	C735	0.03412
C733	C734	0.04152
C734	H487	0.03644
C734	C736	0.03526
H488	C740	0.02831
C736	H490	0.02829
C738	C744	0.03752
O247	C739	0.03894
O247	Ni62	0.06674
O248	Ni62	0.04972
Ni62	N124	0.05301
N124	C741	0.03935
N124	C742	0.05047
H493	C756	0.02872
C740	C741	0.03388
C740	C744	0.05130
C742	H495	0.02799
C742	C743	0.03444
C743	H496	0.03543
C743	C744	0.04122
Ni63	N125	0.05370
Ni63	N126	0.05301
Ni63	O251	0.06817
Ni63	O252	0.06674
Ni63	O253	0.04972
Ni63	O254	0.04952
O249	C755	0.03826
N125	C750	0.03971
N125	C751	0.05109
N126	C749	0.03935
N126	C752	0.05047
C745	H497	0.02872
C745	C746	0.05250
C745	C750	0.03412
C746	C747	0.04152
C747	C751	0.03526
C748	H498	0.02831
C748	C749	0.03388
C748	C754	0.05130
C749	H499	0.03557
C750	H500	0.03576
C751	H501	0.02829
C752	H502	0.02799
C752	C753	0.03444
C753	C754	0.04122
C754	C755	0.03752
O251	C762	0.03826
O252	C761	0.03894
O253	C762	0.04721
O254	C761	0.04798
N127	C759	0.03971
N127	C760	0.05109
C756	C757	0.05250
C756	C759	0.03412
C757	C758	0.04152
C758	H503	0.03644
C758	C760	0.03526
H504	C764	0.02831
C760	H506	0.02829
C762	C768	0.03752
O255	C763	0.03894
O255	Ni64	0.06674
O256	Ni64	0.04972
Ni64	N128	0.05301
N128	C765	0.03935
N128	C766	0.05047
C764	C765	0.03388
C764	C768	0.05130
C766	H511	0.02799
C766	C767	0.03444
C767	H512	0.03543
C767	C768	0.04122
