data_TODO_PM
_symmetry_space_group_name_H-M	'P1'
_cell_length_a	25.011200
_cell_length_b	50.093600
_cell_length_c	41.107200
_cell_angle_alpha	90.000000
_cell_angle_beta	91.269000
_cell_angle_gamma	90.000000
_symmetry_Int_Tables_number 1

loop_
_symmetry_equiv_pos_as_xyz
'x,y,z'

loop_
_atom_site_label
_atom_site_type_symbol
_atom_site_fract_x
_atom_site_fract_y
_atom_site_fract_z
Ni1	Ni	0.123700	0.188490	0.209858
Ni2	Ni	0.248700	0.061510	0.334858
Ni3	Ni	0.123700	0.188490	0.709858
Ni4	Ni	0.248700	0.061510	0.834858
Ni5	Ni	0.248700	0.311510	0.084858
Ni6	Ni	0.123700	0.438490	0.459858
Ni7	Ni	0.248700	0.311510	0.584858
Ni8	Ni	0.123700	0.438490	0.959858
Ni9	Ni	0.123700	0.688490	0.209858
Ni10	Ni	0.248700	0.561510	0.334858
Ni11	Ni	0.123700	0.688490	0.709858
Ni12	Ni	0.248700	0.561510	0.834858
Ni13	Ni	0.248700	0.811510	0.084858
Ni14	Ni	0.123700	0.938490	0.459858
Ni15	Ni	0.248700	0.811510	0.584858
Ni16	Ni	0.123700	0.938490	0.959858
Ni17	Ni	0.498700	0.061510	0.084858
Ni18	Ni	0.373700	0.188490	0.459858
Ni19	Ni	0.498700	0.061510	0.584858
Ni20	Ni	0.373700	0.188490	0.959858
Ni21	Ni	0.373700	0.438490	0.209858
Ni22	Ni	0.498700	0.311510	0.334858
Ni23	Ni	0.373700	0.438490	0.709858
Ni24	Ni	0.498700	0.311510	0.834858
Ni25	Ni	0.498700	0.561510	0.084858
Ni26	Ni	0.373700	0.688490	0.459858
Ni27	Ni	0.498700	0.561510	0.584858
Ni28	Ni	0.373700	0.688490	0.959858
Ni29	Ni	0.373700	0.938490	0.209858
Ni30	Ni	0.498700	0.811510	0.334858
Ni31	Ni	0.373700	0.938490	0.709858
Ni32	Ni	0.498700	0.811510	0.834858
Ni33	Ni	0.623700	0.188490	0.209858
Ni34	Ni	0.748700	0.061510	0.334858
Ni35	Ni	0.623700	0.188490	0.709858
Ni36	Ni	0.748700	0.061510	0.834858
Ni37	Ni	0.748700	0.311510	0.084858
Ni38	Ni	0.623700	0.438490	0.459858
Ni39	Ni	0.748700	0.311510	0.584858
Ni40	Ni	0.623700	0.438490	0.959858
Ni41	Ni	0.623700	0.688490	0.209858
Ni42	Ni	0.748700	0.561510	0.334858
Ni43	Ni	0.623700	0.688490	0.709858
Ni44	Ni	0.748700	0.561510	0.834858
Ni45	Ni	0.748700	0.811510	0.084858
Ni46	Ni	0.623700	0.938490	0.459858
Ni47	Ni	0.748700	0.811510	0.584858
Ni48	Ni	0.623700	0.938490	0.959858
Ni49	Ni	0.998700	0.061510	0.084858
Ni50	Ni	0.873700	0.188490	0.459858
Ni51	Ni	0.998700	0.061510	0.584858
Ni52	Ni	0.873700	0.188490	0.959858
Ni53	Ni	0.873700	0.438490	0.209858
Ni54	Ni	0.998700	0.311510	0.334858
Ni55	Ni	0.873700	0.438490	0.709858
Ni56	Ni	0.998700	0.311510	0.834858
Ni57	Ni	0.998700	0.561510	0.084858
Ni58	Ni	0.873700	0.688490	0.459858
Ni59	Ni	0.998700	0.561510	0.584858
Ni60	Ni	0.873700	0.688490	0.959858
Ni61	Ni	0.873700	0.938490	0.209858
Ni62	Ni	0.998700	0.811510	0.334858
Ni63	Ni	0.873700	0.938490	0.709858
Ni64	Ni	0.998700	0.811510	0.834858
C1	C	0.051263	0.117862	0.139070
O1	O	0.002261	0.107617	0.143925
O2	O	0.078560	0.108482	0.117615
N1	N	0.109639	0.182012	0.197843
C2	C	0.073268	0.248426	0.257459
O3	O	0.123220	0.239047	0.262703
O4	O	0.045844	0.238859	0.235446
N2	N	0.012376	0.310523	0.316939
C3	C	0.174042	0.132131	0.264874
O5	O	0.203918	0.142585	0.241147
O6	O	0.129599	0.141321	0.269412
N3	N	0.234164	0.067990	0.323022
C4	C	0.198194	0.001569	0.382426
O7	O	0.247857	0.011253	0.387878
O8	O	0.170897	0.010864	0.360180
N4	N	0.137759	0.939458	0.442062
C5	C	0.049117	0.117869	0.639843
O9	O	0.079203	0.107395	0.616228
O10	O	0.004615	0.108695	0.644233
N5	N	0.108788	0.182014	0.698150
C6	C	0.073194	0.248431	0.757426
O11	O	0.122857	0.238747	0.762878
O12	O	0.045897	0.239136	0.735180
N6	N	0.012759	0.310542	0.817062
C7	C	0.176216	0.132140	0.764088
O13	O	0.127112	0.142278	0.768901
O14	O	0.203523	0.141615	0.742699
N7	N	0.234873	0.067993	0.822766
C8	C	0.198194	0.001569	0.882426
O15	O	0.247857	0.011253	0.887878
O16	O	0.170897	0.010864	0.860180
N8	N	0.137759	0.939458	0.942062
C9	C	0.198194	0.251569	0.132426
O17	O	0.247857	0.261253	0.137878
O18	O	0.170897	0.260864	0.110180
N9	N	0.137759	0.189458	0.192062
C10	C	0.049042	0.367869	0.389874
O19	O	0.078918	0.357415	0.366147
O20	O	0.004599	0.358679	0.394412
N10	N	0.109164	0.432010	0.448022
C11	C	0.073194	0.498431	0.507426
O21	O	0.122857	0.488747	0.512878
O22	O	0.045897	0.489136	0.485180
N11	N	0.012759	0.560542	0.567062
C12	C	0.174117	0.382131	0.514843
O23	O	0.204203	0.392605	0.491228
O24	O	0.129615	0.391305	0.519233
N12	N	0.233788	0.317986	0.573150
C13	C	0.200436	0.251547	0.633268
O25	O	0.170553	0.261914	0.608683
O26	O	0.245491	0.260217	0.638336
N13	N	0.138228	0.189467	0.692258
C14	C	0.049117	0.367869	0.889843
O27	O	0.079203	0.357395	0.866228
O28	O	0.004615	0.358695	0.894233
N14	N	0.108788	0.432014	0.948150
C15	C	0.073268	0.498426	0.007459
O29	O	0.123220	0.489047	0.012703
O30	O	0.045844	0.488859	0.985446
N15	N	0.012376	0.560523	0.066939
C16	C	0.174117	0.382131	0.014843
O31	O	0.204203	0.392605	0.991228
O32	O	0.129615	0.391305	0.019233
N16	N	0.233788	0.317986	0.073150
C17	C	0.049042	0.617869	0.139874
O33	O	0.078918	0.607415	0.116147
O34	O	0.004599	0.608679	0.144412
N17	N	0.109164	0.682010	0.198022
C18	C	0.075436	0.748453	0.258268
O35	O	0.045553	0.738086	0.233683
O36	O	0.120491	0.739783	0.263336
N18	N	0.013228	0.810533	0.317258
C19	C	0.174117	0.632131	0.264843
O37	O	0.204203	0.642605	0.241228
O38	O	0.129615	0.641305	0.269233
N19	N	0.233788	0.567986	0.323150
C20	C	0.200392	0.501544	0.383244
O39	O	0.170165	0.512130	0.358956
O40	O	0.245672	0.510020	0.388016
N20	N	0.138480	0.439450	0.442330
C21	C	0.049117	0.617869	0.639843
O41	O	0.079203	0.607395	0.616228
O42	O	0.004615	0.608695	0.644233
N21	N	0.108788	0.682014	0.698150
C22	C	0.075392	0.748456	0.758244
O43	O	0.045165	0.737870	0.733956
O44	O	0.120672	0.739980	0.763016
N22	N	0.013480	0.810550	0.817330
C23	C	0.176216	0.632140	0.764088
O45	O	0.127112	0.642278	0.768901
O46	O	0.203523	0.641615	0.742699
N23	N	0.234873	0.567993	0.822766
C24	C	0.198268	0.501574	0.882459
O47	O	0.248220	0.510953	0.887703
O48	O	0.170844	0.511141	0.860446
N24	N	0.137376	0.439477	0.941939
C25	C	0.198268	0.751574	0.132459
O49	O	0.248220	0.760953	0.137703
O50	O	0.170844	0.761141	0.110446
N25	N	0.137376	0.689477	0.191939
C26	C	0.049117	0.867869	0.389843
O51	O	0.079203	0.857395	0.366228
O52	O	0.004615	0.858695	0.394233
N26	N	0.108788	0.932014	0.448150
C27	C	0.073194	0.998431	0.507426
O53	O	0.122857	0.988747	0.512878
O54	O	0.045897	0.989136	0.485180
N27	N	0.012759	0.060542	0.567062
C28	C	0.176263	0.882138	0.514070
O55	O	0.127261	0.892383	0.518925
O56	O	0.203560	0.891518	0.492615
N28	N	0.234639	0.817988	0.572844
C29	C	0.200436	0.751547	0.633268
O57	O	0.170553	0.761914	0.608683
O58	O	0.245491	0.760217	0.638336
N29	N	0.138228	0.689467	0.692258
C30	C	0.049117	0.867869	0.889843
O59	O	0.079203	0.857395	0.866228
O60	O	0.004615	0.858695	0.894233
N30	N	0.108788	0.932014	0.948150
C31	C	0.075436	0.998453	0.008268
O61	O	0.045553	0.988086	0.983683
O62	O	0.120491	0.989783	0.013336
N31	N	0.013228	0.060533	0.067258
C32	C	0.174117	0.882131	0.014843
O63	O	0.204203	0.892605	0.991228
O64	O	0.129615	0.891305	0.019233
N32	N	0.233788	0.817986	0.073150
C33	C	0.448194	0.001569	0.132426
O65	O	0.497857	0.011253	0.137878
O66	O	0.420897	0.010864	0.110180
N33	N	0.387759	0.939458	0.192062
C34	C	0.299042	0.117869	0.389874
O67	O	0.328918	0.107415	0.366147
O68	O	0.254599	0.108679	0.394412
N34	N	0.359164	0.182010	0.448022
C35	C	0.325392	0.248456	0.508244
O69	O	0.295165	0.237870	0.483956
O70	O	0.370672	0.239980	0.513016
N35	N	0.263480	0.310550	0.567330
C36	C	0.426216	0.132140	0.514088
O71	O	0.377112	0.142278	0.518901
O72	O	0.453523	0.141615	0.492699
N36	N	0.484873	0.067993	0.572766
C37	C	0.448194	0.001569	0.632426
O73	O	0.497857	0.011253	0.637878
O74	O	0.420897	0.010864	0.610180
N37	N	0.387759	0.939458	0.692062
C38	C	0.299117	0.117869	0.889843
O75	O	0.329203	0.107395	0.866228
O76	O	0.254615	0.108695	0.894233
N38	N	0.358788	0.182014	0.948150
C39	C	0.323268	0.248426	0.007459
O77	O	0.373220	0.239047	0.012703
O78	O	0.295844	0.238859	0.985446
N39	N	0.262376	0.310523	0.066939
C40	C	0.424042	0.132131	0.014874
O79	O	0.453918	0.142585	0.991147
O80	O	0.379599	0.141321	0.019412
N40	N	0.484164	0.067990	0.073022
C41	C	0.299042	0.367869	0.139874
O81	O	0.328918	0.357415	0.116147
O82	O	0.254599	0.358679	0.144412
N41	N	0.359164	0.432010	0.198022
C42	C	0.325392	0.498456	0.258244
O83	O	0.295165	0.487870	0.233956
O84	O	0.370672	0.489980	0.263016
N42	N	0.263480	0.560550	0.317330
C43	C	0.426216	0.382140	0.264088
O85	O	0.377112	0.392278	0.268901
O86	O	0.453523	0.391615	0.242699
N43	N	0.484873	0.317993	0.322766
C44	C	0.450436	0.251547	0.383268
O87	O	0.420553	0.261914	0.358683
O88	O	0.495491	0.260217	0.388336
N44	N	0.388228	0.189467	0.442258
C45	C	0.301216	0.367860	0.639088
O89	O	0.252112	0.357722	0.643901
O90	O	0.328523	0.358385	0.617699
N45	N	0.359873	0.432007	0.697766
C46	C	0.325392	0.498456	0.758244
O91	O	0.295165	0.487870	0.733956
O92	O	0.370672	0.489980	0.763016
N46	N	0.263480	0.560550	0.817330
C47	C	0.424117	0.382131	0.764843
O93	O	0.454203	0.392605	0.741228
O94	O	0.379615	0.391305	0.769233
N47	N	0.483788	0.317986	0.823150
C48	C	0.448268	0.251574	0.882459
O95	O	0.498220	0.260953	0.887703
O96	O	0.420844	0.261141	0.860446
N48	N	0.387376	0.189477	0.941939
C49	C	0.450436	0.501547	0.133268
O97	O	0.420553	0.511914	0.108683
O98	O	0.495491	0.510217	0.138336
N49	N	0.388228	0.439467	0.192258
C50	C	0.299117	0.617869	0.389843
O99	O	0.329203	0.607395	0.366228
O100	O	0.254615	0.608695	0.394233
N50	N	0.358788	0.682014	0.448150
C51	C	0.325392	0.748456	0.508244
O101	O	0.295165	0.737870	0.483956
O102	O	0.370672	0.739980	0.513016
N51	N	0.263480	0.810550	0.567330
C52	C	0.426216	0.632140	0.514088
O103	O	0.377112	0.642278	0.518901
O104	O	0.453523	0.641615	0.492699
N52	N	0.484873	0.567993	0.572766
C53	C	0.450436	0.501547	0.633268
O105	O	0.420553	0.511914	0.608683
O106	O	0.495491	0.510217	0.638336
N53	N	0.388228	0.439467	0.692258
C54	C	0.301263	0.617862	0.889070
O107	O	0.252261	0.607617	0.893925
O108	O	0.328560	0.608482	0.867615
N54	N	0.359639	0.682012	0.947844
C55	C	0.325392	0.748456	0.008244
O109	O	0.295165	0.737870	0.983956
O110	O	0.370672	0.739980	0.013016
N55	N	0.263480	0.810550	0.067330
C56	C	0.426263	0.632138	0.014070
O111	O	0.377261	0.642383	0.018925
O112	O	0.453560	0.641518	0.992615
N56	N	0.484639	0.567988	0.072844
C57	C	0.299042	0.867869	0.139874
O113	O	0.328918	0.857415	0.116147
O114	O	0.254599	0.858679	0.144412
N57	N	0.359164	0.932010	0.198022
C58	C	0.323268	0.998426	0.257459
O115	O	0.373220	0.989047	0.262703
O116	O	0.295844	0.988859	0.235446
N58	N	0.262376	0.060523	0.316939
C59	C	0.424117	0.882131	0.264843
O117	O	0.454203	0.892605	0.241228
O118	O	0.379615	0.891305	0.269233
N59	N	0.483788	0.817986	0.323150
C60	C	0.450436	0.751547	0.383268
O119	O	0.420553	0.761914	0.358683
O120	O	0.495491	0.760217	0.388336
N60	N	0.388228	0.689467	0.442258
C61	C	0.299117	0.867869	0.639843
O121	O	0.329203	0.857395	0.616228
O122	O	0.254615	0.858695	0.644233
N61	N	0.358788	0.932014	0.698150
C62	C	0.325436	0.998453	0.758268
O123	O	0.295553	0.988086	0.733683
O124	O	0.370491	0.989783	0.763336
N62	N	0.263228	0.060533	0.817258
C63	C	0.426216	0.882140	0.764088
O125	O	0.377112	0.892278	0.768901
O126	O	0.453523	0.891615	0.742699
N63	N	0.484873	0.817993	0.822766
C64	C	0.448268	0.751574	0.882459
O127	O	0.498220	0.760953	0.887703
O128	O	0.420844	0.761141	0.860446
N64	N	0.387376	0.689477	0.941939
C65	C	0.551263	0.117862	0.139070
O129	O	0.502261	0.107617	0.143925
O130	O	0.578560	0.108482	0.117615
N65	N	0.609639	0.182012	0.197843
C66	C	0.573194	0.248431	0.257426
O131	O	0.622857	0.238747	0.262878
O132	O	0.545897	0.239136	0.235180
N66	N	0.512759	0.310542	0.317062
C67	C	0.676263	0.132138	0.264070
O133	O	0.627261	0.142383	0.268925
O134	O	0.703560	0.141518	0.242615
N67	N	0.734639	0.067988	0.322844
C68	C	0.700392	0.001544	0.383244
O135	O	0.670165	0.012130	0.358956
O136	O	0.745672	0.010020	0.388016
N68	N	0.638480	0.939450	0.442330
C69	C	0.549042	0.117869	0.639874
O137	O	0.578918	0.107415	0.616147
O138	O	0.504599	0.108679	0.644412
N69	N	0.609164	0.182010	0.698022
C70	C	0.573268	0.248426	0.757459
O139	O	0.623220	0.239047	0.762703
O140	O	0.545844	0.238859	0.735446
N70	N	0.512376	0.310523	0.816939
C71	C	0.674117	0.132131	0.764843
O141	O	0.704203	0.142605	0.741228
O142	O	0.629615	0.141305	0.769233
N71	N	0.733788	0.067986	0.823150
C72	C	0.700392	0.001544	0.883244
O143	O	0.670165	0.012130	0.858956
O144	O	0.745672	0.010020	0.888016
N72	N	0.638480	0.939450	0.942330
C73	C	0.700392	0.251544	0.133244
O145	O	0.670165	0.262130	0.108956
O146	O	0.745672	0.260020	0.138016
N73	N	0.638480	0.189450	0.192330
C74	C	0.551263	0.367862	0.389070
O147	O	0.502261	0.357617	0.393925
O148	O	0.578560	0.358482	0.367615
N74	N	0.609639	0.432012	0.447844
C75	C	0.575392	0.498456	0.508244
O149	O	0.545165	0.487870	0.483956
O150	O	0.620672	0.489980	0.513016
N75	N	0.513480	0.560550	0.567330
C76	C	0.674042	0.382131	0.514874
O151	O	0.703918	0.392585	0.491147
O152	O	0.629599	0.391321	0.519412
N76	N	0.734164	0.317990	0.573022
C77	C	0.700436	0.251547	0.633268
O153	O	0.670553	0.261914	0.608683
O154	O	0.745491	0.260217	0.638336
N77	N	0.638228	0.189467	0.692258
C78	C	0.549117	0.367869	0.889843
O155	O	0.579203	0.357395	0.866228
O156	O	0.504615	0.358695	0.894233
N78	N	0.608788	0.432014	0.948150
C79	C	0.573268	0.498426	0.007459
O157	O	0.623220	0.489047	0.012703
O158	O	0.545844	0.488859	0.985446
N79	N	0.512376	0.560523	0.066939
C80	C	0.674117	0.382131	0.014843
O159	O	0.704203	0.392605	0.991228
O160	O	0.629615	0.391305	0.019233
N80	N	0.733788	0.317986	0.073150
C81	C	0.551216	0.617860	0.139088
O161	O	0.502112	0.607722	0.143901
O162	O	0.578523	0.608385	0.117699
N81	N	0.609873	0.682007	0.197766
C82	C	0.575436	0.748453	0.258268
O163	O	0.545553	0.738086	0.233683
O164	O	0.620491	0.739783	0.263336
N82	N	0.513228	0.810533	0.317258
C83	C	0.676263	0.632138	0.264070
O165	O	0.627261	0.642383	0.268925
O166	O	0.703560	0.641518	0.242615
N83	N	0.734639	0.567988	0.322844
C84	C	0.698194	0.501569	0.382426
O167	O	0.747857	0.511253	0.387878
O168	O	0.670897	0.510864	0.360180
N84	N	0.637759	0.439458	0.442062
C85	C	0.551263	0.617862	0.639070
O169	O	0.502261	0.607617	0.643925
O170	O	0.578560	0.608482	0.617615
N85	N	0.609639	0.682012	0.697844
C86	C	0.575392	0.748456	0.758244
O171	O	0.545165	0.737870	0.733956
O172	O	0.620672	0.739980	0.763016
N86	N	0.513480	0.810550	0.817330
C87	C	0.676263	0.632138	0.764070
O173	O	0.627261	0.642383	0.768925
O174	O	0.703560	0.641518	0.742615
N87	N	0.734639	0.567988	0.822844
C88	C	0.700392	0.501544	0.883244
O175	O	0.670165	0.512130	0.858956
O176	O	0.745672	0.510020	0.888016
N88	N	0.638480	0.439450	0.942330
C89	C	0.698194	0.751569	0.132426
O177	O	0.747857	0.761253	0.137878
O178	O	0.670897	0.760864	0.110180
N89	N	0.637759	0.689458	0.192062
C90	C	0.549042	0.867869	0.389874
O179	O	0.578918	0.857415	0.366147
O180	O	0.504599	0.858679	0.394412
N90	N	0.609164	0.932010	0.448022
C91	C	0.575392	0.998456	0.508244
O181	O	0.545165	0.987870	0.483956
O182	O	0.620672	0.989980	0.513016
N91	N	0.513480	0.060550	0.567330
C92	C	0.676263	0.882138	0.514070
O183	O	0.627261	0.892383	0.518925
O184	O	0.703560	0.891518	0.492615
N92	N	0.734639	0.817988	0.572844
C93	C	0.698194	0.751569	0.632426
O185	O	0.747857	0.761253	0.637878
O186	O	0.670897	0.760864	0.610180
N93	N	0.637759	0.689458	0.692062
C94	C	0.551263	0.867862	0.889070
O187	O	0.502261	0.857617	0.893925
O188	O	0.578560	0.858482	0.867615
N94	N	0.609639	0.932012	0.947844
C95	C	0.575436	0.998453	0.008268
O189	O	0.545553	0.988086	0.983683
O190	O	0.620491	0.989783	0.013336
N95	N	0.513228	0.060533	0.067258
C96	C	0.674042	0.882131	0.014874
O191	O	0.703918	0.892585	0.991147
O192	O	0.629599	0.891321	0.019412
N96	N	0.734164	0.817990	0.073022
C97	C	0.948268	0.001574	0.132459
O193	O	0.998220	0.010953	0.137703
O194	O	0.920844	0.011141	0.110446
N97	N	0.887376	0.939477	0.191939
C98	C	0.801263	0.117862	0.389070
O195	O	0.752261	0.107617	0.393925
O196	O	0.828560	0.108482	0.367615
N98	N	0.859639	0.182012	0.447843
C99	C	0.825392	0.248456	0.508244
O197	O	0.795165	0.237870	0.483956
O198	O	0.870672	0.239980	0.513016
N99	N	0.763480	0.310550	0.567330
C100	C	0.924117	0.132131	0.514843
O199	O	0.954203	0.142605	0.491228
O200	O	0.879615	0.141305	0.519233
N100	N	0.983788	0.067986	0.573150
C101	C	0.950436	0.001547	0.633268
O201	O	0.920553	0.011914	0.608683
O202	O	0.995491	0.010217	0.638336
N101	N	0.888228	0.939467	0.692258
C102	C	0.799042	0.117869	0.889874
O203	O	0.828918	0.107415	0.866147
O204	O	0.754599	0.108679	0.894412
N102	N	0.859164	0.182010	0.948022
C103	C	0.825436	0.248453	0.008268
O205	O	0.795553	0.238086	0.983683
O206	O	0.870491	0.239783	0.013336
N103	N	0.763228	0.310533	0.067258
C104	C	0.924117	0.132131	0.014843
O207	O	0.954203	0.142605	0.991228
O208	O	0.879615	0.141305	0.019233
N104	N	0.983788	0.067986	0.073150
C105	C	0.799117	0.367869	0.139843
O209	O	0.829203	0.357395	0.116228
O210	O	0.754615	0.358695	0.144233
N105	N	0.858788	0.432014	0.198150
C106	C	0.825436	0.498453	0.258268
O211	O	0.795553	0.488086	0.233683
O212	O	0.870491	0.489783	0.263336
N106	N	0.763228	0.560533	0.317258
C107	C	0.924042	0.382131	0.264874
O213	O	0.953918	0.392585	0.241147
O214	O	0.879599	0.391321	0.269412
N107	N	0.984164	0.317990	0.323022
C108	C	0.948268	0.251574	0.382459
O215	O	0.998220	0.260953	0.387703
O216	O	0.920844	0.261141	0.360446
N108	N	0.887376	0.189477	0.441939
C109	C	0.801216	0.367860	0.639088
O217	O	0.752112	0.357722	0.643901
O218	O	0.828523	0.358385	0.617699
N109	N	0.859873	0.432007	0.697766
C110	C	0.825392	0.498456	0.758244
O219	O	0.795165	0.487870	0.733956
O220	O	0.870672	0.489980	0.763016
N110	N	0.763480	0.560550	0.817330
C111	C	0.926263	0.382138	0.764070
O221	O	0.877261	0.392383	0.768925
O222	O	0.953560	0.391518	0.742615
N111	N	0.984639	0.317988	0.822844
C112	C	0.948268	0.251574	0.882459
O223	O	0.998220	0.260953	0.887703
O224	O	0.920844	0.261141	0.860446
N112	N	0.887376	0.189477	0.941939
C113	C	0.948194	0.501569	0.132426
O225	O	0.997857	0.511253	0.137878
O226	O	0.920897	0.510864	0.110180
N113	N	0.887759	0.439458	0.192062
C114	C	0.799042	0.617869	0.389874
O227	O	0.828918	0.607415	0.366147
O228	O	0.754599	0.608679	0.394412
N114	N	0.859164	0.682010	0.448022
C115	C	0.823194	0.748431	0.507426
O229	O	0.872857	0.738747	0.512878
O230	O	0.795897	0.739136	0.485180
N115	N	0.762759	0.810542	0.567062
C116	C	0.924117	0.632131	0.514843
O231	O	0.954203	0.642605	0.491228
O232	O	0.879615	0.641305	0.519233
N116	N	0.983788	0.567986	0.573150
C117	C	0.950436	0.501547	0.633268
O233	O	0.920553	0.511914	0.608683
O234	O	0.995491	0.510217	0.638336
N117	N	0.888228	0.439467	0.692258
C118	C	0.801216	0.617860	0.889088
O235	O	0.752112	0.607722	0.893901
O236	O	0.828523	0.608385	0.867699
N118	N	0.859873	0.682007	0.947766
C119	C	0.823194	0.748431	0.007426
O237	O	0.872857	0.738747	0.012878
O238	O	0.795897	0.739136	0.985180
N119	N	0.762759	0.810542	0.067062
C120	C	0.924042	0.632131	0.014874
O239	O	0.953918	0.642585	0.991147
O240	O	0.879599	0.641321	0.019412
N120	N	0.984164	0.567990	0.073022
C121	C	0.801216	0.867860	0.139088
O241	O	0.752112	0.857722	0.143901
O242	O	0.828523	0.858385	0.117699
N121	N	0.859873	0.932007	0.197766
C122	C	0.825392	0.998456	0.258244
O243	O	0.795165	0.987870	0.233956
O244	O	0.870672	0.989980	0.263016
N122	N	0.763480	0.060550	0.317330
C123	C	0.926263	0.882138	0.264070
O245	O	0.877261	0.892383	0.268925
O246	O	0.953560	0.891518	0.242615
N123	N	0.984639	0.817988	0.322844
C124	C	0.948268	0.751574	0.382459
O247	O	0.998220	0.760953	0.387703
O248	O	0.920844	0.761141	0.360446
N124	N	0.887376	0.689477	0.441939
C125	C	0.799042	0.867869	0.639874
O249	O	0.828918	0.857415	0.616147
O250	O	0.754599	0.858679	0.644412
N125	N	0.859164	0.932010	0.698022
C126	C	0.825392	0.998456	0.758244
O251	O	0.795165	0.987870	0.733956
O252	O	0.870672	0.989980	0.763016
N126	N	0.763480	0.060550	0.817330
C127	C	0.926263	0.882138	0.764070
O253	O	0.877261	0.892383	0.768925
O254	O	0.953560	0.891518	0.742615
N127	N	0.984639	0.817988	0.822844
C128	C	0.948194	0.751569	0.882426
O255	O	0.997857	0.761253	0.887878
O256	O	0.920897	0.760864	0.860180
N128	N	0.887759	0.689458	0.942062
