data_NiPyC2_vc-relax_NiPyC2_vc-relax_aligned_CH2-CH3_NiPyC2_vc-relax_aligned_CH2-CH3_NiPyC2_vc-relax_aligned_CH2-CH3_NiPyC2_vc-relax_aligned_CH2-CH3_NiPyC2_vc-relax_aligned_CH2-CH3_NiPyC2_vc-relax_aligned_CH2-CH3_NiPyC2_vc-relax_aligned_CH2-CH3_NiPyC2_vc-relax_aligned_CH2-CH3_PM
_symmetry_space_group_name_H-M	'P1'
_cell_length_a	13.596920
_cell_length_b	10.761410
_cell_length_c	11.188340
_cell_angle_alpha	90.000000
_cell_angle_beta	91.370820
_cell_angle_gamma	90.000000
_symmetry_Int_Tables_number 1

loop_
_symmetry_equiv_pos_as_xyz
'x,y,z'

loop_
_atom_site_label
_atom_site_type_symbol
_atom_site_fract_x
_atom_site_fract_y
_atom_site_fract_z
Ni1	Ni	0.247197	0.753640	0.835964
Ni2	Ni	0.000319	0.245480	0.339573
O1	O	0.111597	0.356377	0.377951
O2	O	0.362148	0.643663	0.875199
O3	O	0.387594	0.132093	0.366528
O4	O	0.135269	0.866605	0.868183
O5	O	0.471199	0.368506	0.466691
O6	O	0.222521	0.628961	0.964342
O7	O	0.027495	0.115997	0.463143
O8	O	0.276884	0.882169	0.960933
N1	N	0.304670	0.859220	0.713966
N2	N	0.058019	0.140503	0.216709
N3	N	0.190138	0.644396	0.716223
N4	N	0.443186	0.356492	0.217779
C1	C	0.291060	0.975012	0.532636
C2	C	0.042181	0.024694	0.035506
C3	C	0.392226	0.999467	0.540557
C4	C	0.143313	0.999720	0.041690
C5	C	0.449200	0.952237	0.635756
C6	C	0.201469	0.047233	0.135744
H1	H	0.027666	0.970603	0.644986
H2	H	0.280056	0.029159	0.143552
C7	C	0.203970	0.520841	0.541178
C8	C	0.457280	0.480360	0.042147
H3	H	0.249067	0.482258	0.471539
H4	H	0.003156	0.518378	0.972910
C9	C	0.245670	0.597932	0.628523
C10	C	0.498677	0.403347	0.130221
H5	H	0.323324	0.623149	0.630133
H6	H	0.076408	0.378457	0.132091
C11	C	0.249081	0.903609	0.622156
C12	C	0.001383	0.096050	0.125873
H7	H	0.170825	0.881421	0.622089
H8	H	0.423215	0.118160	0.127295
C13	C	0.402384	0.881084	0.721817
C14	C	0.155764	0.118649	0.222607
H9	H	0.442056	0.840512	0.797913
H10	H	0.196516	0.159347	0.297836
C15	C	0.093038	0.619955	0.721873
C16	C	0.346073	0.381359	0.222307
H11	H	0.053780	0.663137	0.794694
H12	H	0.306279	0.338513	0.294844
C17	C	0.046657	0.542831	0.637737
C18	C	0.299918	0.458270	0.137501
H13	H	0.468696	0.522384	0.644679
H14	H	0.221822	0.478144	0.143880
C19	C	0.103706	0.492992	0.547307
C20	C	0.356836	0.508112	0.046801
C21	C	0.436987	0.081917	0.453858
C22	C	0.186461	0.916651	0.954182
C23	C	0.060730	0.405840	0.461679
C24	C	0.312713	0.593879	0.959708
Ni3	Ni	0.747197	0.753640	0.835964
Ni4	Ni	0.500319	0.245480	0.339573
O9	O	0.611596	0.356377	0.377951
O10	O	0.862148	0.643663	0.875199
O11	O	0.887594	0.132093	0.366528
O12	O	0.635269	0.866605	0.868183
O13	O	0.971199	0.368506	0.466691
O14	O	0.722521	0.628961	0.964342
O15	O	0.527496	0.115997	0.463143
O16	O	0.776884	0.882169	0.960933
N5	N	0.804670	0.859220	0.713966
N6	N	0.558018	0.140503	0.216709
N7	N	0.690138	0.644396	0.716223
N8	N	0.943186	0.356492	0.217779
C25	C	0.791060	0.975012	0.532636
C26	C	0.542181	0.024694	0.035506
C27	C	0.892226	0.999467	0.540557
C28	C	0.643312	0.999720	0.041690
C29	C	0.949200	0.952237	0.635756
C30	C	0.701469	0.047233	0.135744
H15	H	0.527666	0.970603	0.644986
H16	H	0.780056	0.029159	0.143552
C31	C	0.703971	0.520841	0.541178
C32	C	0.957280	0.480360	0.042147
C33	C	0.745670	0.597932	0.628523
C34	C	0.998677	0.403347	0.130221
H17	H	0.823324	0.623149	0.630133
H18	H	0.576408	0.378457	0.132091
C35	C	0.749081	0.903609	0.622156
C36	C	0.501382	0.096050	0.125873
H19	H	0.670825	0.881421	0.622089
H20	H	0.923215	0.118160	0.127295
C37	C	0.902384	0.881084	0.721817
C38	C	0.655764	0.118649	0.222607
H21	H	0.942056	0.840512	0.797913
H22	H	0.696516	0.159347	0.297836
C39	C	0.593038	0.619955	0.721873
C40	C	0.846073	0.381359	0.222307
H23	H	0.553780	0.663137	0.794694
H24	H	0.806280	0.338513	0.294844
C41	C	0.546658	0.542831	0.637737
C42	C	0.799918	0.458270	0.137501
C43	C	0.603706	0.492992	0.547307
C44	C	0.856836	0.508112	0.046801
C45	C	0.936987	0.081917	0.453858
C46	C	0.686461	0.916651	0.954182
C47	C	0.560730	0.405840	0.461679
C48	C	0.812713	0.593879	0.959708
C49	C	0.227125	1.025168	0.428223
C50	C	0.117537	0.992641	0.428796
H25	H	0.232299	1.128219	0.428224
H26	H	0.256364	0.988185	0.343417
H27	H	0.082839	1.030838	0.509826
H28	H	0.080102	1.034270	0.349083
H29	H	0.106980	0.890357	0.424749
C51	C	-0.023034	-0.024903	-0.068042
C52	C	-0.132472	0.008142	-0.065619
H30	H	0.005378	0.012162	-0.153249
H31	H	-0.018175	-0.127977	-0.068375
H32	H	-0.142757	0.110485	-0.069247
H33	H	-0.170889	-0.033103	-0.144847
H34	H	-0.166386	-0.030100	0.015897
C53	C	-0.063603	0.514384	0.645306
C54	C	-0.118278	0.574451	0.748452
H35	H	-0.100648	0.546255	0.561170
H36	H	-0.072858	0.412261	0.654484
H37	H	-0.114726	0.677367	0.742246
H38	H	-0.196885	0.546443	0.743490
H39	H	-0.086847	0.542947	0.835858
C55	C	0.521349	0.533009	-0.057366
C56	C	0.630197	0.496526	-0.053621
H40	H	0.490443	0.501093	-0.144935
H41	H	0.518476	0.636105	-0.053103
H42	H	0.638428	0.394191	-0.061668
H43	H	0.667758	0.540459	-0.129895
H44	H	0.666551	0.529632	0.030457
C57	C	0.727125	1.025168	0.428223
C58	C	0.617537	0.992641	0.428796
H45	H	0.732299	1.128219	0.428224
H46	H	0.756364	0.988185	0.343417
H47	H	0.582839	1.030838	0.509826
H48	H	0.580102	1.034270	0.349083
H49	H	0.606980	0.890357	0.424749
C59	C	0.476966	-0.024902	-0.068042
C60	C	0.367527	0.008136	-0.065616
H50	H	0.481828	-0.127976	-0.068377
H51	H	0.505375	0.012165	-0.153249
H52	H	0.333617	-0.030110	0.015901
H53	H	0.329110	-0.033110	-0.144843
H54	H	0.357238	0.110479	-0.069241
C61	C	0.767171	0.468166	0.440945
C62	C	0.875960	0.504921	0.443259
H55	H	0.735477	0.499857	0.353696
H56	H	0.764497	0.365072	0.445411
H57	H	0.883958	0.607263	0.434942
H58	H	0.912928	0.460950	0.366568
H59	H	0.913072	0.472049	0.526949
C63	C	0.689474	0.486552	0.144793
C64	C	0.634734	0.426753	0.248028
H60	H	0.652579	0.454310	0.060695
H61	H	0.680081	0.588690	0.153610
H62	H	0.638422	0.323822	0.242174
H63	H	0.556096	0.454596	0.242818
H64	H	0.666010	0.458629	0.335386

loop_
_geom_bond_atom_site_label_1
_geom_bond_atom_site_label_2
_geom_bond_distance
Ni1	O2	0.16385
Ni1	O4	0.16226
Ni1	O6	0.18065
Ni1	O8	0.18171
Ni1	N1	0.17127
Ni1	N3	0.17184
Ni2	O1	0.16172
Ni2	O7	0.18104
Ni2	N2	0.17160
Ni2	O11	0.16214
Ni2	O13	0.17928
Ni2	N8	0.17442
O1	C23	0.10975
O2	C24	0.10984
O3	C21	0.11218
O3	Ni4	0.16214
O4	C22	0.11190
O5	Ni4	0.17928
O5	C47	0.09713
O6	C24	0.09689
O7	C45	0.09716
O8	C22	0.09701
N1	C11	0.11614
N1	C13	0.10044
N2	C12	0.11591
N2	C14	0.10033
N3	C9	0.11373
N3	C15	0.10029
N4	C10	0.11376
N4	C16	0.10035
N4	Ni4	0.17442
C1	C3	0.10438
C1	C11	0.12196
C1	C49	0.13231
C2	C4	0.10435
C2	C12	0.12216
C2	C51	0.13204
C3	C5	0.12058
C3	C21	0.12774
C4	C6	0.12036
C4	C22	0.12814
C5	C13	0.12108
C5	H15	0.08111
C6	H2	0.08102
C6	C14	0.12139
H1	C29	0.08111
C7	H3	0.09150
C7	C9	0.12374
C7	C19	0.10424
C8	C10	0.12410
C8	C20	0.10431
C8	C55	0.12954
H4	C32	0.09134
C9	H5	0.08166
C10	H18	0.08164
H6	C34	0.08164
C11	H7	0.08134
C12	H20	0.08125
H8	C36	0.08125
C13	H9	0.09492
C14	H10	0.09474
C15	H11	0.09332
C15	C17	0.12320
C16	H12	0.09317
C16	C18	0.12344
C17	C19	0.11797
C17	C53	0.11412
C18	H14	0.08084
C18	C20	0.11811
H13	C41	0.08090
C19	C23	0.12952
C20	C24	0.12995
C21	O15	0.09716
C23	O13	0.09713
Ni3	O10	0.16385
Ni3	O12	0.16226
Ni3	O14	0.18065
Ni3	O16	0.18171
Ni3	N5	0.17127
Ni3	N7	0.17184
Ni4	O9	0.16172
Ni4	O15	0.18104
Ni4	N6	0.17160
O9	C47	0.10975
O10	C48	0.10984
O11	C45	0.11218
O12	C46	0.11190
O14	C48	0.09689
O16	C46	0.09701
N5	C35	0.11614
N5	C37	0.10044
N6	C36	0.11591
N6	C38	0.10033
N7	C33	0.11373
N7	C39	0.10029
N8	C34	0.11376
N8	C40	0.10035
C25	C27	0.10438
C25	C35	0.12196
C25	C57	0.13231
C26	C28	0.10435
C26	C36	0.12216
C26	C59	0.13204
C27	C29	0.12058
C27	C45	0.12774
C28	C30	0.12036
C28	C46	0.12814
C29	C37	0.12108
C30	H16	0.08102
C30	C38	0.12139
C31	C33	0.12374
C31	C43	0.10424
C31	C61	0.12968
C32	C34	0.12410
C32	C44	0.10431
C33	H17	0.08166
C35	H19	0.08134
C37	H21	0.09492
C38	H22	0.09474
C39	H23	0.09332
C39	C41	0.12320
C40	H24	0.09317
C40	C42	0.12344
C41	C43	0.11797
C42	C44	0.11811
C42	C63	0.11424
C43	C47	0.12952
C44	C48	0.12995
C49	C50	0.11431
C49	H25	0.10318
C49	H26	0.09703
C50	H27	0.09607
C50	H28	0.09741
C50	H29	0.10291
C51	C52	0.11434
C51	H30	0.09717
C51	H31	0.10319
C52	H32	0.10292
C52	H33	0.09723
C52	H34	0.09622
C53	C54	0.13129
C53	H35	0.09730
C53	H36	0.10295
C54	H37	0.10316
C54	H38	0.08360
C54	H39	0.09808
C55	C56	0.11486
C55	H40	0.09819
C55	H41	0.10322
C56	H42	0.10298
C56	H43	0.09570
C56	H44	0.09740
C57	C58	0.11431
C57	H45	0.10318
C57	H46	0.09703
C58	H47	0.09607
C58	H48	0.09741
C58	H49	0.10291
C59	C60	0.11434
C59	H50	0.10319
C59	H51	0.09717
C60	H52	0.09622
C60	H53	0.09723
C60	H54	0.10292
C61	C62	0.11485
C61	H55	0.09809
C61	H56	0.10323
C62	H57	0.10299
C62	H58	0.09582
C62	H59	0.09727
C63	C64	0.13126
C63	H60	0.09733
C63	H61	0.10295
C64	H62	0.10316
C64	H63	0.08358
C64	H64	0.09811
