data_NiPyC2_experiment_NiPyC2_experiment_aligned_O-CH3_NiPyC2_experiment_aligned_O-CH3_NiPyC2_experiment_aligned_O-CH3_NiPyC2_experiment_aligned_O-CH3_NiPyC2_experiment_aligned_O-CH3_NiPyC2_experiment_aligned_O-CH3_NiPyC2_experiment_aligned_O-CH3_NiPyC2_experiment_aligned_O-CH3_PM
_symmetry_space_group_name_H-M	'P1'
_cell_length_a	12.505600
_cell_length_b	12.523400
_cell_length_c	10.276800
_cell_angle_alpha	90.000000
_cell_angle_beta	91.269000
_cell_angle_gamma	90.000000
_symmetry_Int_Tables_number 1

loop_
_symmetry_equiv_pos_as_xyz
'x,y,z'

loop_
_atom_site_label
_atom_site_type_symbol
_atom_site_fract_x
_atom_site_fract_y
_atom_site_fract_z
Ni1	Ni	0.247400	0.753960	0.839430
O1	O	0.120650	0.349620	0.392900
O2	O	0.377450	0.133080	0.370200
O3	O	0.468450	0.352230	0.497300
O4	O	0.033250	0.119800	0.474200
N1	N	0.313950	0.842900	0.696200
N2	N	0.180550	0.646100	0.715100
C1	C	0.293900	0.959300	0.513400
C2	C	0.396600	0.998000	0.533700
C3	C	0.458550	0.954600	0.635400
H1	H	0.030100	0.977800	0.650500
C4	C	0.203850	0.519100	0.544100
H2	H	0.247550	0.491000	0.477800
C5	C	0.240150	0.603200	0.621700
H3	H	0.309550	0.631300	0.607900
C6	C	0.255750	0.880900	0.595000
H4	H	0.186050	0.853000	0.579100
C7	C	0.414250	0.877700	0.713700
H5	H	0.456650	0.848300	0.782600
C8	C	0.082250	0.604500	0.734600
H6	H	0.039650	0.634600	0.800700
C9	C	0.041300	0.520300	0.662600
C10	C	0.103950	0.477000	0.564600
C11	C	0.439000	0.089300	0.455000
C12	C	0.061000	0.386200	0.481500
Ni2	Ni	0.497400	0.246040	0.339430
O5	O	0.370650	0.650380	0.892900
O6	O	0.127450	0.866920	0.870200
O7	O	0.218450	0.647770	0.997300
O8	O	0.283250	0.880200	0.974200
N3	N	0.063950	0.157100	0.196200
N4	N	0.430550	0.353900	0.215100
C13	C	0.043900	0.040700	0.013400
H7	H	0.000100	0.013800	0.944100
C14	C	0.146600	0.002000	0.033700
C15	C	0.208550	0.045400	0.135400
C16	C	0.453850	0.480900	0.044100
H8	H	0.497550	0.509000	0.977800
C17	C	0.490150	0.396800	0.121700
H9	H	0.059550	0.368700	0.107900
C18	C	0.005750	0.119100	0.095000
H10	H	0.436050	0.147000	0.079100
C19	C	0.164250	0.122300	0.213700
H11	H	0.206650	0.151700	0.282600
C20	C	0.332250	0.395500	0.234600
H12	H	0.289650	0.365400	0.300700
C21	C	0.291300	0.479700	0.162600
C22	C	0.353950	0.523000	0.064600
C23	C	0.189000	0.910700	0.955000
C24	C	0.311000	0.613800	0.981500
Ni3	Ni	0.747400	0.753960	0.839430
O9	O	0.620650	0.349620	0.392900
O10	O	0.877450	0.133080	0.370200
O11	O	0.968450	0.352230	0.497300
O12	O	0.533250	0.119800	0.474200
N5	N	0.813950	0.842900	0.696200
N6	N	0.680550	0.646100	0.715100
C25	C	0.793900	0.959300	0.513400
C26	C	0.896600	0.998000	0.533700
C27	C	0.958550	0.954600	0.635400
H13	H	0.530100	0.977800	0.650500
C28	C	0.703850	0.519100	0.544100
H14	H	0.747550	0.491000	0.477800
C29	C	0.740150	0.603200	0.621700
H15	H	0.809550	0.631300	0.607900
C30	C	0.755750	0.880900	0.595000
H16	H	0.686050	0.853000	0.579100
C31	C	0.914250	0.877700	0.713700
H17	H	0.956650	0.848300	0.782600
C32	C	0.582250	0.604500	0.734600
H18	H	0.539650	0.634600	0.800700
C33	C	0.541300	0.520300	0.662600
C34	C	0.603950	0.477000	0.564600
C35	C	0.939000	0.089300	0.455000
C36	C	0.561000	0.386200	0.481500
Ni4	Ni	0.997400	0.246040	0.339430
O13	O	0.870650	0.650380	0.892900
O14	O	0.627450	0.866920	0.870200
O15	O	0.718450	0.647770	0.997300
O16	O	0.783250	0.880200	0.974200
N7	N	0.563950	0.157100	0.196200
N8	N	0.930550	0.353900	0.215100
C37	C	0.543900	0.040700	0.013400
C38	C	0.646600	0.002000	0.033700
C39	C	0.708550	0.045400	0.135400
H19	H	0.780100	0.022200	0.150500
C40	C	0.953850	0.480900	0.044100
H20	H	0.997550	0.509000	0.977800
C41	C	0.990150	0.396800	0.121700
H21	H	0.559550	0.368700	0.107900
C42	C	0.505750	0.119100	0.095000
H22	H	0.936050	0.147000	0.079100
C43	C	0.664250	0.122300	0.213700
H23	H	0.706650	0.151700	0.282600
C44	C	0.832250	0.395500	0.234600
H24	H	0.789650	0.365400	0.300700
C45	C	0.791300	0.479700	0.162600
C46	C	0.853950	0.523000	0.064600
C47	C	0.689000	0.910700	0.955000
C48	C	0.811000	0.613800	0.981500
O17	O	0.231703	0.999354	0.412709
C49	C	0.128427	0.968099	0.381626
H25	H	0.099205	1.014438	0.296002
H26	H	0.126349	0.881884	0.356251
H27	H	0.074973	0.984410	0.464219
O18	O	-0.057771	0.478638	0.684379
C50	C	-0.127202	0.513943	0.777649
H28	H	-0.201121	0.465037	0.772345
H29	H	-0.090353	0.504851	0.876382
H30	H	-0.149161	0.598693	0.759565
O19	O	0.311707	0.010555	0.154874
C51	C	0.381427	0.046470	0.251239
H31	H	0.458750	0.003905	0.242824
H32	H	0.396086	0.133425	0.239838
H33	H	0.348835	0.029562	0.348793
O20	O	0.192229	0.521363	0.184380
C52	C	0.122798	0.486058	0.277650
H34	H	0.048880	0.534965	0.272347
H35	H	0.100840	0.401308	0.259568
H36	H	0.159649	0.495151	0.376383
O21	O	0.731704	0.999352	0.412708
C53	C	0.628428	0.968098	0.381625
H37	H	0.599206	1.014436	0.296000
H38	H	0.574974	0.984408	0.464218
H39	H	0.626351	0.881883	0.356249
O22	O	0.442229	0.478638	0.684379
C54	C	0.372798	0.513943	0.777649
H40	H	0.298879	0.465037	0.772345
H41	H	0.409647	0.504851	0.876382
H42	H	0.350839	0.598693	0.759565
O23	O	0.481704	0.000648	-0.087292
C55	C	0.378428	0.031902	-0.118375
H43	H	0.349206	-0.014436	-0.204000
H44	H	0.324974	0.015592	-0.035782
H45	H	0.376351	0.118117	-0.143751
O24	O	0.692229	0.521363	0.184380
C56	C	0.622798	0.486058	0.277650
H46	H	0.548880	0.534965	0.272347
H47	H	0.600840	0.401308	0.259568
H48	H	0.659649	0.495151	0.376383

loop_
_geom_bond_atom_site_label_1
_geom_bond_atom_site_label_2
_geom_bond_distance
Ni1	N1	0.18126
Ni1	N2	0.17765
Ni1	O5	0.16964
Ni1	O6	0.16761
Ni1	O7	0.19245
Ni1	O8	0.18811
O1	C12	0.11290
O1	Ni4	0.16964
O2	C11	0.11356
O2	Ni2	0.16761
O3	Ni2	0.19245
O3	C36	0.09985
O4	C35	0.10091
O4	Ni4	0.18811
N1	C6	0.12277
N1	C7	0.10760
N2	C5	0.11881
N2	C8	0.10851
C1	C2	0.11161
C1	C6	0.11942
C1	O17	0.12495
C2	C3	0.12674
C2	C11	0.12778
C3	C7	0.11835
C3	H13	0.07672
H1	C27	0.07672
C4	H2	0.08423
C4	C5	0.12005
C4	C10	0.11033
C5	H3	0.07613
C6	H4	0.07674
C7	H5	0.08608
C8	H6	0.08420
C8	C9	0.11811
C9	C10	0.12411
C9	O18	0.10966
C10	C12	0.13036
C11	O12	0.10091
C12	O11	0.09985
Ni2	N4	0.17765
Ni2	O9	0.16964
Ni2	O12	0.18811
Ni2	N7	0.18126
O5	C24	0.11290
O6	C23	0.11356
O7	C24	0.09985
O8	C23	0.10091
N3	C18	0.12277
N3	C19	0.10760
N3	Ni4	0.18126
N4	C17	0.11881
N4	C20	0.10851
C13	H7	0.08628
C13	C14	0.11161
C13	C18	0.11942
C14	C15	0.12674
C14	C23	0.12778
C15	C19	0.11835
C15	O19	0.11061
C16	H8	0.08423
C16	C17	0.12005
C16	C22	0.11033
C17	H21	0.07613
H9	C41	0.07613
C18	H22	0.07674
H10	C42	0.07674
C19	H11	0.08608
C20	H12	0.08420
C20	C21	0.11811
C21	C22	0.12411
C21	O20	0.10966
C22	C24	0.13036
Ni3	N5	0.18126
Ni3	N6	0.17765
Ni3	O13	0.16964
Ni3	O14	0.16761
Ni3	O15	0.19245
Ni3	O16	0.18811
O9	C36	0.11290
O10	C35	0.11356
O10	Ni4	0.16761
O11	Ni4	0.19245
N5	C30	0.12277
N5	C31	0.10760
N6	C29	0.11881
N6	C32	0.10851
C25	C26	0.11161
C25	C30	0.11942
C25	O21	0.12495
C26	C27	0.12674
C26	C35	0.12778
C27	C31	0.11835
C28	H14	0.08423
C28	C29	0.12005
C28	C34	0.11033
C29	H15	0.07613
C30	H16	0.07674
C31	H17	0.08608
C32	H18	0.08420
C32	C33	0.11811
C33	C34	0.12411
C33	O22	0.10966
C34	C36	0.13036
Ni4	N8	0.17765
O13	C48	0.11290
O14	C47	0.11356
O15	C48	0.09985
O16	C47	0.10091
N7	C42	0.12277
N7	C43	0.10760
N8	C41	0.11881
N8	C44	0.10851
C37	C38	0.11161
C37	C42	0.11942
C37	O23	0.12495
C38	C39	0.12674
C38	C47	0.12778
C39	H19	0.07672
C39	C43	0.11835
C40	H20	0.08423
C40	C41	0.12005
C40	C46	0.11033
C43	H23	0.08608
C44	H24	0.08420
C44	C45	0.11811
C45	C46	0.12411
C45	O24	0.10966
C46	C48	0.13036
O17	C49	0.11229
C49	H25	0.10165
C49	H26	0.08990
C49	H27	0.09972
O18	C50	0.12152
C50	H28	0.08879
C50	H29	0.10578
C50	H30	0.08940
O19	C51	0.12425
C51	H31	0.08866
C51	H32	0.08892
C51	H33	0.10424
O20	C52	0.12152
C52	H34	0.08879
C52	H35	0.08940
C52	H36	0.10578
O21	C53	0.11229
C53	H37	0.10165
C53	H38	0.09972
C53	H39	0.08990
O22	C54	0.12152
C54	H40	0.08879
C54	H41	0.10578
C54	H42	0.08940
O23	C55	0.11229
C55	H43	0.10165
C55	H44	0.09972
C55	H45	0.08990
O24	C56	0.12152
C56	H46	0.08879
C56	H47	0.08940
C56	H48	0.10578
