data_NiPyC2_experiment_NiPyC2_experiment_aligned_O-CH2-CH2-CH3_NiPyC2_experiment_aligned_O-CH2-CH2-CH3_NiPyC2_experiment_aligned_O-CH2-CH2-CH3_NiPyC2_experiment_aligned_O-CH2-CH2-CH3_NiPyC2_experiment_aligned_O-CH2-CH2-CH3_NiPyC2_experiment_aligned_O-CH2-CH2-CH3_NiPyC2_experiment_aligned_O-CH2-CH2-CH3_NiPyC2_experiment_aligned_O-CH2-CH2-CH3_PM
_symmetry_space_group_name_H-M	'P1'
_cell_length_a	12.505600
_cell_length_b	12.523400
_cell_length_c	10.276800
_cell_angle_alpha	90.000000
_cell_angle_beta	91.269000
_cell_angle_gamma	90.000000
_symmetry_Int_Tables_number 1

loop_
_symmetry_equiv_pos_as_xyz
'x,y,z'

loop_
_atom_site_label
_atom_site_type_symbol
_atom_site_fract_x
_atom_site_fract_y
_atom_site_fract_z
Ni1	Ni	0.247400	0.753960	0.839430
O1	O	0.120650	0.349620	0.392900
O2	O	0.377450	0.133080	0.370200
O3	O	0.468450	0.352230	0.497300
O4	O	0.033250	0.119800	0.474200
N1	N	0.313950	0.842900	0.696200
N2	N	0.180550	0.646100	0.715100
C1	C	0.293900	0.959300	0.513400
C2	C	0.396600	0.998000	0.533700
C3	C	0.458550	0.954600	0.635400
H1	H	0.030100	0.977800	0.650500
C4	C	0.203850	0.519100	0.544100
C5	C	0.240150	0.603200	0.621700
H2	H	0.309550	0.631300	0.607900
C6	C	0.255750	0.880900	0.595000
H3	H	0.186050	0.853000	0.579100
C7	C	0.414250	0.877700	0.713700
H4	H	0.456650	0.848300	0.782600
C8	C	0.082250	0.604500	0.734600
H5	H	0.039650	0.634600	0.800700
C9	C	0.041300	0.520300	0.662600
H6	H	0.472300	0.492500	0.679100
C10	C	0.103950	0.477000	0.564600
C11	C	0.439000	0.089300	0.455000
C12	C	0.061000	0.386200	0.481500
Ni2	Ni	0.497400	0.246040	0.339430
O5	O	0.370650	0.650380	0.892900
O6	O	0.127450	0.866920	0.870200
O7	O	0.218450	0.647770	0.997300
O8	O	0.283250	0.880200	0.974200
N3	N	0.063950	0.157100	0.196200
N4	N	0.430550	0.353900	0.215100
C13	C	0.043900	0.040700	0.013400
H7	H	0.000100	0.013800	0.944100
C14	C	0.146600	0.002000	0.033700
C15	C	0.208550	0.045400	0.135400
C16	C	0.453850	0.480900	0.044100
C17	C	0.490150	0.396800	0.121700
H8	H	0.059550	0.368700	0.107900
C18	C	0.005750	0.119100	0.095000
H9	H	0.436050	0.147000	0.079100
C19	C	0.164250	0.122300	0.213700
H10	H	0.206650	0.151700	0.282600
C20	C	0.332250	0.395500	0.234600
H11	H	0.289650	0.365400	0.300700
C21	C	0.291300	0.479700	0.162600
H12	H	0.222300	0.507500	0.179100
C22	C	0.353950	0.523000	0.064600
C23	C	0.189000	0.910700	0.955000
C24	C	0.311000	0.613800	0.981500
Ni3	Ni	0.747400	0.753960	0.839430
O9	O	0.620650	0.349620	0.392900
O10	O	0.877450	0.133080	0.370200
O11	O	0.968450	0.352230	0.497300
O12	O	0.533250	0.119800	0.474200
N5	N	0.813950	0.842900	0.696200
N6	N	0.680550	0.646100	0.715100
C25	C	0.793900	0.959300	0.513400
C26	C	0.896600	0.998000	0.533700
C27	C	0.958550	0.954600	0.635400
H13	H	0.530100	0.977800	0.650500
C28	C	0.703850	0.519100	0.544100
C29	C	0.740150	0.603200	0.621700
H14	H	0.809550	0.631300	0.607900
C30	C	0.755750	0.880900	0.595000
H15	H	0.686050	0.853000	0.579100
C31	C	0.914250	0.877700	0.713700
H16	H	0.956650	0.848300	0.782600
C32	C	0.582250	0.604500	0.734600
H17	H	0.539650	0.634600	0.800700
C33	C	0.541300	0.520300	0.662600
H18	H	0.972300	0.492500	0.679100
C34	C	0.603950	0.477000	0.564600
C35	C	0.939000	0.089300	0.455000
C36	C	0.561000	0.386200	0.481500
Ni4	Ni	0.997400	0.246040	0.339430
O13	O	0.870650	0.650380	0.892900
O14	O	0.627450	0.866920	0.870200
O15	O	0.718450	0.647770	0.997300
O16	O	0.783250	0.880200	0.974200
N7	N	0.563950	0.157100	0.196200
N8	N	0.930550	0.353900	0.215100
C37	C	0.543900	0.040700	0.013400
C38	C	0.646600	0.002000	0.033700
C39	C	0.708550	0.045400	0.135400
H19	H	0.780100	0.022200	0.150500
C40	C	0.953850	0.480900	0.044100
C41	C	0.990150	0.396800	0.121700
H20	H	0.559550	0.368700	0.107900
C42	C	0.505750	0.119100	0.095000
H21	H	0.936050	0.147000	0.079100
C43	C	0.664250	0.122300	0.213700
H22	H	0.706650	0.151700	0.282600
C44	C	0.832250	0.395500	0.234600
H23	H	0.789650	0.365400	0.300700
C45	C	0.791300	0.479700	0.162600
H24	H	0.722300	0.507500	0.179100
C46	C	0.853950	0.523000	0.064600
C47	C	0.689000	0.910700	0.955000
C48	C	0.811000	0.613800	0.981500
O17	O	0.231765	0.999377	0.412718
C49	C	0.128387	0.968272	0.381334
C50	C	0.087924	1.031968	0.263432
H25	H	0.075733	0.983942	0.465078
H26	H	0.127015	0.881646	0.357334
C51	C	-0.026285	1.000443	0.224797
H27	H	0.140930	1.017040	0.179920
H28	H	0.090006	1.118617	0.286909
H29	H	-0.030042	0.914367	0.198965
H30	H	-0.053369	1.047996	0.139035
H31	H	-0.081091	1.016189	0.306214
O18	O	0.266270	0.477868	0.447805
C52	C	0.367525	0.512337	0.416869
C53	C	0.408788	0.445468	0.304257
H32	H	0.422402	0.502877	0.502791
H33	H	0.364390	0.597747	0.387237
C54	C	0.520712	0.480541	0.266308
H34	H	0.353598	0.454182	0.218607
H35	H	0.411206	0.359979	0.333351
H36	H	0.519951	0.565433	0.234939
H37	H	0.548437	0.430574	0.184419
H38	H	0.577700	0.471003	0.349963
O19	O	0.311672	0.010529	0.154812
C55	C	0.381664	0.046308	0.251146
C56	C	0.488237	-0.012185	0.239800
H39	H	0.347837	0.029975	0.348373
H40	H	0.394986	0.133604	0.239630
C57	C	0.568532	0.024630	0.344388
H41	H	0.521769	0.003386	0.142317
H42	H	0.474951	-0.099514	0.250299
H43	H	0.584323	0.111521	0.334587
H44	H	0.644997	-0.019220	0.333614
H45	H	0.537392	0.008373	0.442834
O20	O	0.516271	0.522133	-0.052194
C58	C	0.617534	0.487677	-0.083114
C59	C	0.658792	0.554540	-0.195734
H46	H	0.614417	0.402262	-0.112731
H47	H	0.672401	0.497157	0.002812
C60	C	0.770730	0.519488	-0.233656
H48	H	0.661188	0.640033	-0.166658
H49	H	0.603613	0.545801	-0.281390
H50	H	0.827707	0.529053	-0.149994
H51	H	0.798451	0.569449	-0.315553
H52	H	0.769994	0.434591	-0.265004
O21	O	0.731765	0.999378	0.412719
C61	C	0.628379	0.968287	0.381350
C62	C	0.587920	1.031977	0.263441
H53	H	0.626989	0.881658	0.357364
H54	H	0.575736	0.983977	0.465097
C63	C	0.473699	1.000475	0.224830
H55	H	0.590024	1.118628	0.286900
H56	H	0.640915	1.017024	0.179924
H57	H	0.418905	1.016248	0.306253
H58	H	0.446619	1.048021	0.139062
H59	H	0.469918	0.914396	0.199018
O22	O	0.766271	0.477867	0.447806
C64	C	0.867534	0.512323	0.416886
C65	C	0.908792	0.445460	0.304266
H60	H	0.864417	0.597738	0.387269
H61	H	0.922401	0.502843	0.502812
C66	C	1.020730	0.480512	0.266344
H62	H	0.911188	0.359967	0.333342
H63	H	0.853613	0.454199	0.218610
H64	H	1.077707	0.470947	0.350006
H65	H	1.048451	0.430551	0.184447
H66	H	1.019994	0.565409	0.234996
O23	O	0.481765	0.000622	-0.087281
C67	C	0.378379	0.031713	-0.118650
C68	C	0.337920	-0.031977	-0.236559
H67	H	0.376989	0.118342	-0.142636
H68	H	0.325736	0.016023	-0.034903
C69	C	0.223699	-0.000475	-0.275170
H69	H	0.340024	-0.118628	-0.213100
H70	H	0.390915	-0.017024	-0.320076
H71	H	0.168905	-0.016248	-0.193747
H72	H	0.196619	-0.048021	-0.360938
H73	H	0.219918	0.085604	-0.300982
O24	O	1.016271	0.522133	-0.052194
C70	C	1.117534	0.487677	-0.083114
C71	C	1.158792	0.554540	-0.195734
H74	H	1.114417	0.402262	-0.112731
H75	H	1.172401	0.497157	0.002812
C72	C	1.270730	0.519488	-0.233656
H76	H	1.161188	0.640033	-0.166658
H77	H	1.103613	0.545801	-0.281390
H78	H	1.327707	0.529053	-0.149994
H79	H	1.298451	0.569449	-0.315553
H80	H	1.269994	0.434591	-0.265004

loop_
_geom_bond_atom_site_label_1
_geom_bond_atom_site_label_2
_geom_bond_distance
Ni1	N1	0.18126
Ni1	N2	0.17765
Ni1	O5	0.16964
Ni1	O6	0.16761
Ni1	O7	0.19245
Ni1	O8	0.18811
O1	C12	0.11290
O1	Ni4	0.16964
O2	C11	0.11356
O2	Ni2	0.16761
O3	Ni2	0.19245
O3	C36	0.09985
O4	C35	0.10091
O4	Ni4	0.18811
N1	C6	0.12277
N1	C7	0.10760
N2	C5	0.11881
N2	C8	0.10851
C1	C2	0.11161
C1	C6	0.11942
C1	O17	0.12491
C2	C3	0.12674
C2	C11	0.12778
C3	C7	0.11835
C3	H13	0.07672
H1	C27	0.07672
C4	C5	0.12005
C4	C10	0.11033
C4	O18	0.12194
C5	H2	0.07613
C6	H3	0.07674
C7	H4	0.08608
C8	H5	0.08420
C8	C9	0.11811
C9	C10	0.12411
C9	H18	0.07620
H6	C33	0.07620
C10	C12	0.13036
C11	O12	0.10091
C12	O11	0.09985
Ni2	N4	0.17765
Ni2	O9	0.16964
Ni2	O12	0.18811
Ni2	N7	0.18126
O5	C24	0.11290
O6	C23	0.11356
O7	C24	0.09985
O8	C23	0.10091
N3	C18	0.12277
N3	C19	0.10760
N3	Ni4	0.18126
N4	C17	0.11881
N4	C20	0.10851
C13	H7	0.08628
C13	C14	0.11161
C13	C18	0.11942
C14	C15	0.12674
C14	C23	0.12778
C15	C19	0.11835
C15	O19	0.11058
C16	C17	0.12005
C16	C22	0.11033
C16	O20	0.12194
C17	H20	0.07613
H8	C41	0.07613
C18	H21	0.07674
H9	C42	0.07674
C19	H10	0.08608
C20	H11	0.08420
C20	C21	0.11811
C21	H12	0.07620
C21	C22	0.12411
C22	C24	0.13036
Ni3	N5	0.18126
Ni3	N6	0.17765
Ni3	O13	0.16964
Ni3	O14	0.16761
Ni3	O15	0.19245
Ni3	O16	0.18811
O9	C36	0.11290
O10	C35	0.11356
O10	Ni4	0.16761
O11	Ni4	0.19245
N5	C30	0.12277
N5	C31	0.10760
N6	C29	0.11881
N6	C32	0.10851
C25	C26	0.11161
C25	C30	0.11942
C25	O21	0.12491
C26	C27	0.12674
C26	C35	0.12778
C27	C31	0.11835
C28	C29	0.12005
C28	C34	0.11033
C28	O22	0.12194
C29	H14	0.07613
C30	H15	0.07674
C31	H16	0.08608
C32	H17	0.08420
C32	C33	0.11811
C33	C34	0.12411
C34	C36	0.13036
Ni4	N8	0.17765
O13	C48	0.11290
O14	C47	0.11356
O15	C48	0.09985
O16	C47	0.10091
N7	C42	0.12277
N7	C43	0.10760
N8	C41	0.11881
N8	C44	0.10851
C37	C38	0.11161
C37	C42	0.11942
C37	O23	0.12491
C38	C39	0.12674
C38	C47	0.12778
C39	H19	0.07672
C39	C43	0.11835
C40	C41	0.12005
C40	C46	0.11033
C40	O24	0.12194
C43	H22	0.08608
C44	H23	0.08420
C44	C45	0.11811
C45	H24	0.07620
C45	C46	0.12411
C46	C48	0.13036
O17	C49	0.11243
C49	C50	0.13998
C49	H25	0.10016
C49	H26	0.08990
C50	C51	0.12462
C50	H27	0.10003
C50	H28	0.08980
C51	H29	0.08995
C51	H30	0.10173
C51	H31	0.09940
O18	C52	0.11134
C52	C53	0.13732
C52	H32	0.10239
C52	H33	0.09046
C53	C54	0.12328
C53	H34	0.10226
C53	H35	0.09034
C54	H36	0.09051
C54	H37	0.09986
C54	H38	0.10167
O19	C55	0.12434
C55	C56	0.12210
C55	H39	0.10423
C55	H40	0.08905
C56	C57	0.13690
C56	H41	0.10426
C56	H42	0.08896
C57	H43	0.08886
C57	H44	0.08880
C57	H45	0.10453
O20	C58	0.11134
C58	C59	0.13732
C58	H46	0.09046
C58	H47	0.10239
C59	C60	0.12328
C59	H48	0.09033
C59	H49	0.10226
C60	H50	0.10167
C60	H51	0.09986
C60	H52	0.09050
O21	C61	0.11242
C61	C62	0.13999
C61	H53	0.08990
C61	H54	0.10015
C62	C63	0.12462
C62	H55	0.08979
C62	H56	0.10004
C63	H57	0.09940
C63	H58	0.10174
C63	H59	0.08994
O22	C64	0.11134
C64	C65	0.13732
C64	H60	0.09046
C64	H61	0.10239
C65	C66	0.12328
C65	H62	0.09033
C65	H63	0.10226
C66	H64	0.10167
C66	H65	0.09986
C66	H66	0.09050
O23	C67	0.11242
C67	C68	0.13999
C67	H67	0.08990
C67	H68	0.10015
C68	C69	0.12462
C68	H69	0.08979
C68	H70	0.10004
C69	H71	0.09940
C69	H72	0.10174
C69	H73	0.08994
O24	C70	0.11134
C70	C71	0.13732
C70	H74	0.09046
C70	H75	0.10239
C71	C72	0.12328
C71	H76	0.09033
