data_NiPyC2_experiment_NiPyC2_experiment_aligned_O-CH2-CH3_NiPyC2_experiment_aligned_O-CH2-CH3_NiPyC2_experiment_aligned_O-CH2-CH3_NiPyC2_experiment_aligned_O-CH2-CH3_NiPyC2_experiment_aligned_O-CH2-CH3_NiPyC2_experiment_aligned_O-CH2-CH3_NiPyC2_experiment_aligned_O-CH2-CH3_NiPyC2_experiment_aligned_O-CH2-CH3_PM
_symmetry_space_group_name_H-M	'P1'
_cell_length_a	12.505600
_cell_length_b	12.523400
_cell_length_c	10.276800
_cell_angle_alpha	90.000000
_cell_angle_beta	91.269000
_cell_angle_gamma	90.000000
_symmetry_Int_Tables_number 1

loop_
_symmetry_equiv_pos_as_xyz
'x,y,z'

loop_
_atom_site_label
_atom_site_type_symbol
_atom_site_fract_x
_atom_site_fract_y
_atom_site_fract_z
Ni1	Ni	0.247400	0.753960	0.839430
O1	O	0.120650	0.349620	0.392900
O2	O	0.377450	0.133080	0.370200
O3	O	0.468450	0.352230	0.497300
O4	O	0.033250	0.119800	0.474200
N1	N	0.313950	0.842900	0.696200
N2	N	0.180550	0.646100	0.715100
C1	C	0.293900	0.959300	0.513400
H1	H	0.250100	0.986200	0.444100
C2	C	0.396600	0.998000	0.533700
C3	C	0.458550	0.954600	0.635400
H2	H	0.030100	0.977800	0.650500
C4	C	0.203850	0.519100	0.544100
H3	H	0.247550	0.491000	0.477800
C5	C	0.240150	0.603200	0.621700
H4	H	0.309550	0.631300	0.607900
C6	C	0.255750	0.880900	0.595000
H5	H	0.186050	0.853000	0.579100
C7	C	0.414250	0.877700	0.713700
C8	C	0.082250	0.604500	0.734600
C9	C	0.041300	0.520300	0.662600
H6	H	0.472300	0.492500	0.679100
C10	C	0.103950	0.477000	0.564600
C11	C	0.439000	0.089300	0.455000
C12	C	0.061000	0.386200	0.481500
Ni2	Ni	0.497400	0.246040	0.339430
O5	O	0.370650	0.650380	0.892900
O6	O	0.127450	0.866920	0.870200
O7	O	0.218450	0.647770	0.997300
O8	O	0.283250	0.880200	0.974200
N3	N	0.063950	0.157100	0.196200
N4	N	0.430550	0.353900	0.215100
C13	C	0.043900	0.040700	0.013400
H7	H	0.000100	0.013800	0.944100
C14	C	0.146600	0.002000	0.033700
C15	C	0.208550	0.045400	0.135400
H8	H	0.280100	0.022200	0.150500
C16	C	0.453850	0.480900	0.044100
H9	H	0.497550	0.509000	0.977800
C17	C	0.490150	0.396800	0.121700
C18	C	0.005750	0.119100	0.095000
C19	C	0.164250	0.122300	0.213700
H10	H	0.206650	0.151700	0.282600
C20	C	0.332250	0.395500	0.234600
C21	C	0.291300	0.479700	0.162600
H11	H	0.222300	0.507500	0.179100
C22	C	0.353950	0.523000	0.064600
C23	C	0.189000	0.910700	0.955000
C24	C	0.311000	0.613800	0.981500
Ni3	Ni	0.747400	0.753960	0.839430
O9	O	0.620650	0.349620	0.392900
O10	O	0.877450	0.133080	0.370200
O11	O	0.968450	0.352230	0.497300
O12	O	0.533250	0.119800	0.474200
N5	N	0.813950	0.842900	0.696200
N6	N	0.680550	0.646100	0.715100
C25	C	0.793900	0.959300	0.513400
H12	H	0.750100	0.986200	0.444100
C26	C	0.896600	0.998000	0.533700
C27	C	0.958550	0.954600	0.635400
H13	H	0.530100	0.977800	0.650500
C28	C	0.703850	0.519100	0.544100
H14	H	0.747550	0.491000	0.477800
C29	C	0.740150	0.603200	0.621700
H15	H	0.809550	0.631300	0.607900
C30	C	0.755750	0.880900	0.595000
C31	C	0.914250	0.877700	0.713700
H16	H	0.956650	0.848300	0.782600
C32	C	0.582250	0.604500	0.734600
C33	C	0.541300	0.520300	0.662600
H17	H	0.972300	0.492500	0.679100
C34	C	0.603950	0.477000	0.564600
C35	C	0.939000	0.089300	0.455000
C36	C	0.561000	0.386200	0.481500
Ni4	Ni	0.997400	0.246040	0.339430
O13	O	0.870650	0.650380	0.892900
O14	O	0.627450	0.866920	0.870200
O15	O	0.718450	0.647770	0.997300
O16	O	0.783250	0.880200	0.974200
N7	N	0.563950	0.157100	0.196200
N8	N	0.930550	0.353900	0.215100
C37	C	0.543900	0.040700	0.013400
H18	H	0.500100	0.013800	0.944100
C38	C	0.646600	0.002000	0.033700
C39	C	0.708550	0.045400	0.135400
H19	H	0.780100	0.022200	0.150500
C40	C	0.953850	0.480900	0.044100
H20	H	0.997550	0.509000	0.977800
C41	C	0.990150	0.396800	0.121700
H21	H	0.559550	0.368700	0.107900
C42	C	0.505750	0.119100	0.095000
C43	C	0.664250	0.122300	0.213700
H22	H	0.706650	0.151700	0.282600
C44	C	0.832250	0.395500	0.234600
H23	H	0.789650	0.365400	0.300700
C45	C	0.791300	0.479700	0.162600
H24	H	0.722300	0.507500	0.179100
C46	C	0.853950	0.523000	0.064600
C47	C	0.689000	0.910700	0.955000
C48	C	0.811000	0.613800	0.981500
O17	O	0.479537	0.836206	0.814780
C49	C	0.448805	0.759027	0.902424
C50	C	0.541315	0.735344	0.996549
H25	H	0.426585	0.684382	0.849833
H26	H	0.379561	0.787974	0.958587
H27	H	0.611269	0.705791	0.942372
H28	H	0.517077	0.673331	1.067273
H29	H	0.564468	0.808896	1.050613
O18	O	0.017322	0.647228	0.831601
C51	C	0.044873	0.731212	0.912799
C52	C	-0.046500	0.753624	1.004106
H30	H	0.060219	0.804062	0.854232
H31	H	0.117590	0.710505	0.971725
H32	H	-0.119914	0.774998	0.947105
H33	H	-0.024809	0.821091	1.069647
H34	H	-0.062814	0.681881	1.064044
O19	O	-0.097452	0.158341	0.068233
C53	C	-0.148143	0.236348	0.139195
C54	C	-0.258698	0.257001	0.079893
H35	H	-0.101196	0.311715	0.137108
H36	H	-0.156821	0.209529	0.241569
H37	H	-0.251789	0.284401	-0.022377
H38	H	-0.299854	0.319666	0.136549
H39	H	-0.307152	0.182696	0.081592
O20	O	0.267322	0.352771	0.331600
C55	C	0.294871	0.268783	0.412794
C56	C	0.203499	0.246375	0.504105
H40	H	0.367591	0.289486	0.471718
H41	H	0.310211	0.195935	0.354223
H42	H	0.187192	0.318117	0.564048
H43	H	0.225188	0.178906	0.569642
H44	H	0.130082	0.225008	0.447107
O21	O	0.652549	0.841659	0.568232
C57	C	0.601860	0.763648	0.639190
C58	C	0.491302	0.742998	0.579892
H45	H	0.593184	0.790461	0.741568
H46	H	0.648806	0.688282	0.637096
H47	H	0.442849	0.817302	0.581600
H48	H	0.450148	0.680330	0.636545
H49	H	0.498209	0.715605	0.477619
O22	O	0.517322	0.647228	0.831601
C59	C	0.544873	0.731212	0.912799
C60	C	0.453500	0.753624	1.004106
H50	H	0.560219	0.804062	0.854232
H51	H	0.617590	0.710505	0.971725
H52	H	0.380086	0.774998	0.947105
H53	H	0.475191	0.821091	1.069647
H54	H	0.437186	0.681881	1.064044
O23	O	0.402548	0.158341	0.068233
C61	C	0.351857	0.236348	0.139195
C62	C	0.241302	0.257001	0.079893
H55	H	0.398804	0.311715	0.137108
H56	H	0.343179	0.209529	0.241569
H57	H	0.248211	0.284401	-0.022377
H58	H	0.200146	0.319666	0.136549
H59	H	0.192848	0.182696	0.081592
O24	O	1.093105	0.357876	0.098262
C63	C	1.142046	0.275097	0.165536
C64	C	1.252895	0.256330	0.112074
H60	H	1.150020	0.295639	0.270573
H61	H	1.094173	0.200776	0.153596
H62	H	1.302265	0.329592	0.123637
H63	H	1.292648	0.189846	0.165797
H64	H	1.246681	0.235177	0.007211

loop_
_geom_bond_atom_site_label_1
_geom_bond_atom_site_label_2
_geom_bond_distance
Ni1	N1	0.18126
Ni1	N2	0.17765
Ni1	O5	0.16964
Ni1	O6	0.16761
Ni1	O7	0.19245
Ni1	O8	0.18811
O1	C12	0.11290
O1	Ni4	0.16964
O2	C11	0.11356
O2	Ni2	0.16761
O3	Ni2	0.19245
O3	C36	0.09985
O4	C35	0.10091
O4	Ni4	0.18811
N1	C6	0.12277
N1	C7	0.10760
N2	C5	0.11881
N2	C8	0.10851
C1	H1	0.08628
C1	C2	0.11161
C1	C6	0.11942
C2	C3	0.12674
C2	C11	0.12778
C3	C7	0.11835
C3	H13	0.07672
H2	C27	0.07672
C4	H3	0.08423
C4	C5	0.12005
C4	C10	0.11033
C5	H4	0.07613
C6	H5	0.07674
C7	O17	0.12728
C8	C9	0.11811
C8	O18	0.12430
C9	C10	0.12411
C9	H17	0.07620
H6	C33	0.07620
C10	C12	0.13036
C11	O12	0.10091
C12	O11	0.09985
Ni2	N4	0.17765
Ni2	O9	0.16964
Ni2	O12	0.18811
Ni2	N7	0.18126
O5	C24	0.11290
O6	C23	0.11356
O7	C24	0.09985
O8	C23	0.10091
N3	C18	0.12277
N3	C19	0.10760
N3	Ni4	0.18126
N4	C17	0.11881
N4	C20	0.10851
C13	H7	0.08628
C13	C14	0.11161
C13	C18	0.11942
C14	C15	0.12674
C14	C23	0.12778
C15	H8	0.07672
C15	C19	0.11835
C16	H9	0.08423
C16	C17	0.12005
C16	C22	0.11033
C17	H21	0.07613
C18	O19	0.11361
C19	H10	0.08608
C20	C21	0.11811
C20	O20	0.12430
C21	H11	0.07620
C21	C22	0.12411
C22	C24	0.13036
Ni3	N5	0.18126
Ni3	N6	0.17765
Ni3	O13	0.16964
Ni3	O14	0.16761
Ni3	O15	0.19245
Ni3	O16	0.18811
O9	C36	0.11290
O10	C35	0.11356
O10	Ni4	0.16761
O11	Ni4	0.19245
N5	C30	0.12277
N5	C31	0.10760
N6	C29	0.11881
N6	C32	0.10851
C25	H12	0.08628
C25	C26	0.11161
C25	C30	0.11942
C26	C27	0.12674
C26	C35	0.12778
C27	C31	0.11835
C28	H14	0.08423
C28	C29	0.12005
C28	C34	0.11033
C29	H15	0.07613
C30	O21	0.11361
C31	H16	0.08608
C32	C33	0.11811
C32	O22	0.12430
C33	C34	0.12411
C34	C36	0.13036
Ni4	N8	0.17765
O13	C48	0.11290
O14	C47	0.11356
O15	C48	0.09985
O16	C47	0.10091
N7	C42	0.12277
N7	C43	0.10760
N8	C41	0.11881
N8	C44	0.10851
C37	H18	0.08628
C37	C38	0.11161
C37	C42	0.11942
C38	C39	0.12674
C38	C47	0.12778
C39	H19	0.07672
C39	C43	0.11835
C40	H20	0.08423
C40	C41	0.12005
C40	C46	0.11033
C41	O24	0.11253
C42	O23	0.11361
C43	H22	0.08608
C44	H23	0.08420
C44	C45	0.11811
C45	H24	0.07620
C45	C46	0.12411
C46	C48	0.13036
O17	C49	0.12076
C49	C50	0.13408
C49	H25	0.09398
C49	H26	0.09374
C50	H27	0.09329
C50	H28	0.09713
C50	H29	0.09417
O18	C51	0.12002
C51	C52	0.13110
C51	H30	0.09472
C51	H31	0.09586
C52	H32	0.09537
C52	H33	0.09653
C52	H34	0.09490
O19	C53	0.11701
C53	C54	0.12714
C53	H35	0.08882
C53	H36	0.10618
C54	H37	0.10610
C54	H38	0.09397
C54	H39	0.08872
O20	C55	0.12002
C55	C56	0.13111
C55	H40	0.09586
C55	H41	0.09472
C56	H42	0.09490
C56	H43	0.09653
C56	H44	0.09537
O21	C57	0.11700
C57	C58	0.12714
C57	H45	0.10619
C57	H46	0.08882
C58	H47	0.08872
C58	H48	0.09397
C58	H49	0.10610
O22	C59	0.12002
C59	C60	0.13110
C59	H50	0.09472
C59	H51	0.09586
C60	H52	0.09537
C60	H53	0.09653
C60	H54	0.09490
O23	C61	0.11701
C61	C62	0.12714
C61	H55	0.08882
C61	H56	0.10618
C62	H57	0.10610
C62	H58	0.09397
C62	H59	0.08872
O24	C63	0.11736
C63	C64	0.12449
C63	H60	0.10732
C63	H61	0.08921
C64	H62	0.08910
C64	H63	0.09427
C64	H64	0.10716
