data_NiPyC2_experiment_NiPyC2_experiment_aligned_O-CH2-CH2-CH3_NiPyC2_experiment_aligned_O-CH2-CH2-CH3_NiPyC2_experiment_aligned_O-CH2-CH2-CH3_NiPyC2_experiment_aligned_O-CH2-CH2-CH3_NiPyC2_experiment_aligned_O-CH2-CH2-CH3_NiPyC2_experiment_aligned_O-CH2-CH2-CH3_NiPyC2_experiment_aligned_O-CH2-CH2-CH3_NiPyC2_experiment_aligned_O-CH2-CH2-CH3_PM
_symmetry_space_group_name_H-M	'P1'
_cell_length_a	12.505600
_cell_length_b	12.523400
_cell_length_c	10.276800
_cell_angle_alpha	90.000000
_cell_angle_beta	91.269000
_cell_angle_gamma	90.000000
_symmetry_Int_Tables_number 1

loop_
_symmetry_equiv_pos_as_xyz
'x,y,z'

loop_
_atom_site_label
_atom_site_type_symbol
_atom_site_fract_x
_atom_site_fract_y
_atom_site_fract_z
Ni1	Ni	0.247400	0.753960	0.839430
O1	O	0.120650	0.349620	0.392900
O2	O	0.377450	0.133080	0.370200
O3	O	0.468450	0.352230	0.497300
O4	O	0.033250	0.119800	0.474200
N1	N	0.313950	0.842900	0.696200
N2	N	0.180550	0.646100	0.715100
C1	C	0.293900	0.959300	0.513400
H1	H	0.250100	0.986200	0.444100
C2	C	0.396600	0.998000	0.533700
C3	C	0.458550	0.954600	0.635400
H2	H	0.030100	0.977800	0.650500
C4	C	0.203850	0.519100	0.544100
H3	H	0.247550	0.491000	0.477800
C5	C	0.240150	0.603200	0.621700
C6	C	0.255750	0.880900	0.595000
H4	H	0.186050	0.853000	0.579100
C7	C	0.414250	0.877700	0.713700
C8	C	0.082250	0.604500	0.734600
H5	H	0.039650	0.634600	0.800700
C9	C	0.041300	0.520300	0.662600
H6	H	0.472300	0.492500	0.679100
C10	C	0.103950	0.477000	0.564600
C11	C	0.439000	0.089300	0.455000
C12	C	0.061000	0.386200	0.481500
Ni2	Ni	0.497400	0.246040	0.339430
O5	O	0.370650	0.650380	0.892900
O6	O	0.127450	0.866920	0.870200
O7	O	0.218450	0.647770	0.997300
O8	O	0.283250	0.880200	0.974200
N3	N	0.063950	0.157100	0.196200
N4	N	0.430550	0.353900	0.215100
C13	C	0.043900	0.040700	0.013400
H7	H	0.000100	0.013800	0.944100
C14	C	0.146600	0.002000	0.033700
C15	C	0.208550	0.045400	0.135400
H8	H	0.280100	0.022200	0.150500
C16	C	0.453850	0.480900	0.044100
H9	H	0.497550	0.509000	0.977800
C17	C	0.490150	0.396800	0.121700
H10	H	0.059550	0.368700	0.107900
C18	C	0.005750	0.119100	0.095000
H11	H	0.436050	0.147000	0.079100
C19	C	0.164250	0.122300	0.213700
C20	C	0.332250	0.395500	0.234600
H12	H	0.289650	0.365400	0.300700
C21	C	0.291300	0.479700	0.162600
H13	H	0.222300	0.507500	0.179100
C22	C	0.353950	0.523000	0.064600
C23	C	0.189000	0.910700	0.955000
C24	C	0.311000	0.613800	0.981500
Ni3	Ni	0.747400	0.753960	0.839430
O9	O	0.620650	0.349620	0.392900
O10	O	0.877450	0.133080	0.370200
O11	O	0.968450	0.352230	0.497300
O12	O	0.533250	0.119800	0.474200
N5	N	0.813950	0.842900	0.696200
N6	N	0.680550	0.646100	0.715100
C25	C	0.793900	0.959300	0.513400
H14	H	0.750100	0.986200	0.444100
C26	C	0.896600	0.998000	0.533700
C27	C	0.958550	0.954600	0.635400
H15	H	0.530100	0.977800	0.650500
C28	C	0.703850	0.519100	0.544100
H16	H	0.747550	0.491000	0.477800
C29	C	0.740150	0.603200	0.621700
C30	C	0.755750	0.880900	0.595000
C31	C	0.914250	0.877700	0.713700
H17	H	0.956650	0.848300	0.782600
C32	C	0.582250	0.604500	0.734600
H18	H	0.539650	0.634600	0.800700
C33	C	0.541300	0.520300	0.662600
H19	H	0.972300	0.492500	0.679100
C34	C	0.603950	0.477000	0.564600
C35	C	0.939000	0.089300	0.455000
C36	C	0.561000	0.386200	0.481500
Ni4	Ni	0.997400	0.246040	0.339430
O13	O	0.870650	0.650380	0.892900
O14	O	0.627450	0.866920	0.870200
O15	O	0.718450	0.647770	0.997300
O16	O	0.783250	0.880200	0.974200
N7	N	0.563950	0.157100	0.196200
N8	N	0.930550	0.353900	0.215100
C37	C	0.543900	0.040700	0.013400
H20	H	0.500100	0.013800	0.944100
C38	C	0.646600	0.002000	0.033700
C39	C	0.708550	0.045400	0.135400
H21	H	0.780100	0.022200	0.150500
C40	C	0.953850	0.480900	0.044100
H22	H	0.997550	0.509000	0.977800
C41	C	0.990150	0.396800	0.121700
C42	C	0.505750	0.119100	0.095000
H23	H	0.936050	0.147000	0.079100
C43	C	0.664250	0.122300	0.213700
C44	C	0.832250	0.395500	0.234600
C45	C	0.791300	0.479700	0.162600
H24	H	0.722300	0.507500	0.179100
C46	C	0.853950	0.523000	0.064600
C47	C	0.689000	0.910700	0.955000
C48	C	0.811000	0.613800	0.981500
O17	O	0.479546	0.836213	0.814773
C49	C	0.448873	0.759025	0.902444
C50	C	0.542032	0.735522	0.996761
H25	H	0.379418	0.788248	0.958129
H26	H	0.426480	0.684625	0.849321
C51	C	0.512088	0.650493	1.095864
H27	H	0.611787	0.707082	0.941183
H28	H	0.565052	0.809975	1.049229
H29	H	0.490299	0.574725	1.045701
H30	H	0.581258	0.635197	1.162883
H31	H	0.443449	0.677868	1.154010
O18	O	0.343104	0.642115	0.598252
C52	C	0.392095	0.724895	0.665479
C53	C	0.503381	0.743436	0.611443
H32	H	0.399628	0.704075	0.770530
H33	H	0.343758	0.798970	0.653490
C54	C	0.560955	0.834375	0.682700
H34	H	0.496061	0.763455	0.506224
H35	H	0.551539	0.669229	0.622445
H36	H	0.515032	0.909866	0.671395
H37	H	0.641413	0.845886	0.641325
H38	H	0.570644	0.815411	0.787901
O19	O	0.229545	0.163786	0.314774
C55	C	0.198866	0.240960	0.402461
C56	C	0.292028	0.264469	0.496770
H39	H	0.176456	0.315362	0.349352
H40	H	0.129422	0.211717	0.458147
C57	C	0.262073	0.349475	0.595898
H41	H	0.315070	0.190014	0.549219
H42	H	0.361771	0.292934	0.441188
H43	H	0.193447	0.322073	0.654048
H44	H	0.331247	0.364778	0.662909
H45	H	0.240260	0.425245	0.545755
O20	O	0.593105	0.357885	0.098253
C58	C	0.642103	0.275119	0.165497
C59	C	0.753385	0.256572	0.111453
H46	H	0.593769	0.201039	0.153534
H47	H	0.649643	0.295960	0.270540
C60	C	0.810972	0.165654	0.182736
H48	H	0.801540	0.330784	0.122422
H49	H	0.746058	0.236527	0.006240
H50	H	0.820671	0.184646	0.287930
H51	H	0.891427	0.154137	0.141354
H52	H	0.765053	0.090159	0.171467
O21	O	0.652549	0.841668	0.568222
C61	C	0.601803	0.763668	0.639145
C62	C	0.490821	0.743208	0.579218
H53	H	0.649214	0.688536	0.637039
H54	H	0.593565	0.790775	0.741533
C63	C	0.431341	0.657415	0.654291
H55	H	0.443601	0.818410	0.580334
H56	H	0.498860	0.716887	0.476577
H57	H	0.420918	0.682711	0.756843
H58	H	0.351151	0.644373	0.608497
H59	H	0.476312	0.580940	0.652835
O22	O	0.843104	0.642115	0.598252
C64	C	0.892095	0.724895	0.665479
C65	C	1.003381	0.743436	0.611443
H60	H	0.899628	0.704075	0.770530
H61	H	0.843758	0.798970	0.653490
C66	C	1.060955	0.834375	0.682700
H62	H	0.996061	0.763455	0.506224
H63	H	1.051539	0.669229	0.622445
H64	H	1.015032	0.909866	0.671395
H65	H	1.141413	0.845886	0.641325
H66	H	1.070644	0.815411	0.787901
O23	O	0.729545	0.163786	0.314774
C67	C	0.698866	0.240960	0.402461
C68	C	0.792028	0.264469	0.496770
H67	H	0.676456	0.315362	0.349352
H68	H	0.629422	0.211717	0.458147
C69	C	0.762073	0.349475	0.595898
H69	H	0.815070	0.190014	0.549219
H70	H	0.861771	0.292934	0.441188
H71	H	0.693447	0.322073	0.654048
H72	H	0.831247	0.364778	0.662909
H73	H	0.740260	0.425245	0.545755
O24	O	0.767314	0.352780	0.331596
C70	C	0.794814	0.268803	0.412837
C71	C	0.702807	0.246600	0.504337
H74	H	0.810353	0.196211	0.353774
H75	H	0.867739	0.289818	0.471314
C72	C	0.729340	0.154225	0.596332
H76	H	0.686625	0.319326	0.562741
H77	H	0.629643	0.226374	0.446027
H78	H	0.801385	0.173325	0.657109
H79	H	0.661095	0.140054	0.661446
H80	H	0.744267	0.080145	0.540112

loop_
_geom_bond_atom_site_label_1
_geom_bond_atom_site_label_2
_geom_bond_distance
Ni1	N1	0.18126
Ni1	N2	0.17765
Ni1	O5	0.16964
Ni1	O6	0.16761
Ni1	O7	0.19245
Ni1	O8	0.18811
O1	C12	0.11290
O1	Ni4	0.16964
O2	C11	0.11356
O2	Ni2	0.16761
O3	Ni2	0.19245
O3	C36	0.09985
O4	C35	0.10091
O4	Ni4	0.18811
N1	C6	0.12277
N1	C7	0.10760
N2	C5	0.11881
N2	C8	0.10851
C1	H1	0.08628
C1	C2	0.11161
C1	C6	0.11942
C2	C3	0.12674
C2	C11	0.12778
C3	C7	0.11835
C3	H15	0.07672
H2	C27	0.07672
C4	H3	0.08423
C4	C5	0.12005
C4	C10	0.11033
C5	O18	0.11253
C6	H4	0.07674
C7	O17	0.12728
C8	H5	0.08420
C8	C9	0.11811
C9	C10	0.12411
C9	H19	0.07620
H6	C33	0.07620
C10	C12	0.13036
C11	O12	0.10091
C12	O11	0.09985
Ni2	N4	0.17765
Ni2	O9	0.16964
Ni2	O12	0.18811
Ni2	N7	0.18126
O5	C24	0.11290
O6	C23	0.11356
O7	C24	0.09985
O8	C23	0.10091
N3	C18	0.12277
N3	C19	0.10760
N3	Ni4	0.18126
N4	C17	0.11881
N4	C20	0.10851
C13	H7	0.08628
C13	C14	0.11161
C13	C18	0.11942
C14	C15	0.12674
C14	C23	0.12778
C15	H8	0.07672
C15	C19	0.11835
C16	H9	0.08423
C16	C17	0.12005
C16	C22	0.11033
C17	O20	0.11253
H10	C41	0.07613
C18	H23	0.07674
H11	C42	0.07674
C19	O19	0.12728
C20	H12	0.08420
C20	C21	0.11811
C21	H13	0.07620
C21	C22	0.12411
C22	C24	0.13036
Ni3	N5	0.18126
Ni3	N6	0.17765
Ni3	O13	0.16964
Ni3	O14	0.16761
Ni3	O15	0.19245
Ni3	O16	0.18811
O9	C36	0.11290
O10	C35	0.11356
O10	Ni4	0.16761
O11	Ni4	0.19245
N5	C30	0.12277
N5	C31	0.10760
N6	C29	0.11881
N6	C32	0.10851
C25	H14	0.08628
C25	C26	0.11161
C25	C30	0.11942
C26	C27	0.12674
C26	C35	0.12778
C27	C31	0.11835
C28	H16	0.08423
C28	C29	0.12005
C28	C34	0.11033
C29	O22	0.11253
C30	O21	0.11361
C31	H17	0.08608
C32	H18	0.08420
C32	C33	0.11811
C33	C34	0.12411
C34	C36	0.13036
Ni4	N8	0.17765
O13	C48	0.11290
O14	C47	0.11356
O15	C48	0.09985
O16	C47	0.10091
N7	C42	0.12277
N7	C43	0.10760
N8	C41	0.11881
N8	C44	0.10851
C37	H20	0.08628
C37	C38	0.11161
C37	C42	0.11942
C38	C39	0.12674
C38	C47	0.12778
C39	H21	0.07672
C39	C43	0.11835
C40	H22	0.08423
C40	C41	0.12005
C40	C46	0.11033
C43	O23	0.12728
C44	C45	0.11811
C44	O24	0.12430
C45	H24	0.07620
C45	C46	0.12411
C46	C48	0.13036
O17	C49	0.12077
C49	C50	0.13463
C49	H25	0.09370
C49	H26	0.09412
C50	C51	0.13397
C50	H27	0.09361
C50	H28	0.09395
C51	H29	0.09344
C51	H30	0.09752
C51	H31	0.09403
O18	C52	0.11735
C52	C53	0.12509
C52	H32	0.10736
C52	H33	0.08926
C53	C54	0.12908
C53	H34	0.10736
C53	H35	0.08915
C54	H36	0.08908
C54	H37	0.09120
C54	H38	0.10733
O19	C55	0.12077
C55	C56	0.13463
C55	H39	0.09412
C55	H40	0.09369
C56	C57	0.13398
C56	H41	0.09394
C56	H42	0.09361
C57	H43	0.09403
C57	H44	0.09752
C57	H45	0.09344
O20	C58	0.11736
C58	C59	0.12509
C58	H46	0.08926
C58	H47	0.10736
C59	C60	0.12909
C59	H48	0.08914
C59	H49	0.10736
C60	H50	0.10733
C60	H51	0.09120
C60	H52	0.08908
O21	C61	0.11700
C61	C62	0.12778
C61	H53	0.08886
C61	H54	0.10624
C62	C63	0.12859
C62	H55	0.08881
C62	H56	0.10627
C63	H57	0.10614
C63	H58	0.09326
C63	H59	0.08873
O22	C64	0.11735
C64	C65	0.12509
C64	H60	0.10736
C64	H61	0.08926
C65	C66	0.12908
C65	H62	0.10736
C65	H63	0.08915
C66	H64	0.08908
C66	H65	0.09120
C66	H66	0.10733
O23	C67	0.12077
C67	C68	0.13463
C67	H67	0.09412
C67	H68	0.09369
C68	C69	0.13398
C68	H69	0.09394
C68	H70	0.09361
C69	H71	0.09403
C69	H72	0.09752
C69	H73	0.09344
O24	C70	0.12004
C70	C71	0.13165
C70	H74	0.09487
C70	H75	0.09581
C71	C72	0.13304
C71	H76	0.09467
