data_NiPyC2_experiment_NiPyC2_experiment_aligned_F_NiPyC2_experiment_aligned_F_NiPyC2_experiment_aligned_F_NiPyC2_experiment_aligned_F_NiPyC2_experiment_aligned_F_NiPyC2_experiment_aligned_F_NiPyC2_experiment_aligned_F_NiPyC2_experiment_aligned_F_PM
_symmetry_space_group_name_H-M	'P1'
_cell_length_a	12.505600
_cell_length_b	12.523400
_cell_length_c	10.276800
_cell_angle_alpha	90.000000
_cell_angle_beta	91.269000
_cell_angle_gamma	90.000000
_symmetry_Int_Tables_number 1

loop_
_symmetry_equiv_pos_as_xyz
'x,y,z'

loop_
_atom_site_label
_atom_site_type_symbol
_atom_site_fract_x
_atom_site_fract_y
_atom_site_fract_z
Ni1	Ni	0.247400	0.753960	0.839430
O1	O	0.120650	0.349620	0.392900
O2	O	0.377450	0.133080	0.370200
O3	O	0.468450	0.352230	0.497300
O4	O	0.033250	0.119800	0.474200
N1	N	0.313950	0.842900	0.696200
N2	N	0.180550	0.646100	0.715100
C1	C	0.293900	0.959300	0.513400
H1	H	0.250100	0.986200	0.444100
C2	C	0.396600	0.998000	0.533700
C3	C	0.458550	0.954600	0.635400
H2	H	0.030100	0.977800	0.650500
C4	C	0.203850	0.519100	0.544100
H3	H	0.247550	0.491000	0.477800
C5	C	0.240150	0.603200	0.621700
H4	H	0.309550	0.631300	0.607900
C6	C	0.255750	0.880900	0.595000
H5	H	0.186050	0.853000	0.579100
C7	C	0.414250	0.877700	0.713700
C8	C	0.082250	0.604500	0.734600
C9	C	0.041300	0.520300	0.662600
H6	H	0.472300	0.492500	0.679100
C10	C	0.103950	0.477000	0.564600
C11	C	0.439000	0.089300	0.455000
C12	C	0.061000	0.386200	0.481500
Ni2	Ni	0.497400	0.246040	0.339430
O5	O	0.370650	0.650380	0.892900
O6	O	0.127450	0.866920	0.870200
O7	O	0.218450	0.647770	0.997300
O8	O	0.283250	0.880200	0.974200
N3	N	0.063950	0.157100	0.196200
N4	N	0.430550	0.353900	0.215100
C13	C	0.043900	0.040700	0.013400
H7	H	0.000100	0.013800	0.944100
C14	C	0.146600	0.002000	0.033700
C15	C	0.208550	0.045400	0.135400
H8	H	0.280100	0.022200	0.150500
C16	C	0.453850	0.480900	0.044100
H9	H	0.497550	0.509000	0.977800
C17	C	0.490150	0.396800	0.121700
C18	C	0.005750	0.119100	0.095000
H10	H	0.436050	0.147000	0.079100
C19	C	0.164250	0.122300	0.213700
C20	C	0.332250	0.395500	0.234600
H11	H	0.289650	0.365400	0.300700
C21	C	0.291300	0.479700	0.162600
H12	H	0.222300	0.507500	0.179100
C22	C	0.353950	0.523000	0.064600
C23	C	0.189000	0.910700	0.955000
C24	C	0.311000	0.613800	0.981500
Ni3	Ni	0.747400	0.753960	0.839430
O9	O	0.620650	0.349620	0.392900
O10	O	0.877450	0.133080	0.370200
O11	O	0.968450	0.352230	0.497300
O12	O	0.533250	0.119800	0.474200
N5	N	0.813950	0.842900	0.696200
N6	N	0.680550	0.646100	0.715100
C25	C	0.793900	0.959300	0.513400
H13	H	0.750100	0.986200	0.444100
C26	C	0.896600	0.998000	0.533700
C27	C	0.958550	0.954600	0.635400
H14	H	0.530100	0.977800	0.650500
C28	C	0.703850	0.519100	0.544100
H15	H	0.747550	0.491000	0.477800
C29	C	0.740150	0.603200	0.621700
H16	H	0.809550	0.631300	0.607900
C30	C	0.755750	0.880900	0.595000
H17	H	0.686050	0.853000	0.579100
C31	C	0.914250	0.877700	0.713700
C32	C	0.582250	0.604500	0.734600
C33	C	0.541300	0.520300	0.662600
H18	H	0.972300	0.492500	0.679100
C34	C	0.603950	0.477000	0.564600
C35	C	0.939000	0.089300	0.455000
C36	C	0.561000	0.386200	0.481500
Ni4	Ni	0.997400	0.246040	0.339430
O13	O	0.870650	0.650380	0.892900
O14	O	0.627450	0.866920	0.870200
O15	O	0.718450	0.647770	0.997300
O16	O	0.783250	0.880200	0.974200
N7	N	0.563950	0.157100	0.196200
N8	N	0.930550	0.353900	0.215100
C37	C	0.543900	0.040700	0.013400
H19	H	0.500100	0.013800	0.944100
C38	C	0.646600	0.002000	0.033700
C39	C	0.708550	0.045400	0.135400
H20	H	0.780100	0.022200	0.150500
C40	C	0.953850	0.480900	0.044100
H21	H	0.997550	0.509000	0.977800
C41	C	0.990150	0.396800	0.121700
C42	C	0.505750	0.119100	0.095000
H22	H	0.936050	0.147000	0.079100
C43	C	0.664250	0.122300	0.213700
C44	C	0.832250	0.395500	0.234600
H23	H	0.789650	0.365400	0.300700
C45	C	0.791300	0.479700	0.162600
H24	H	0.722300	0.507500	0.179100
C46	C	0.853950	0.523000	0.064600
C47	C	0.689000	0.910700	0.955000
C48	C	0.811000	0.613800	0.981500
F1	F	0.475806	0.834224	0.815086
F2	F	0.020913	0.649484	0.831767
F3	F	0.225806	0.165776	0.315086
F4	F	0.591594	0.355561	0.102127
F5	F	0.975806	0.834224	0.815086
F6	F	0.520913	0.649484	0.831767
F7	F	0.725806	0.165776	0.315086
F8	F	1.091594	0.355561	0.102127

loop_
_geom_bond_atom_site_label_1
_geom_bond_atom_site_label_2
_geom_bond_distance
Ni1	N1	0.18126
Ni1	N2	0.17765
Ni1	O5	0.16964
Ni1	O6	0.16761
Ni1	O7	0.19245
Ni1	O8	0.18811
O1	C12	0.11290
O1	Ni4	0.16964
O2	C11	0.11356
O2	Ni2	0.16761
O3	Ni2	0.19245
O3	C36	0.09985
O4	C35	0.10091
O4	Ni4	0.18811
N1	C6	0.12277
N1	C7	0.10760
N2	C5	0.11881
N2	C8	0.10851
C1	H1	0.08628
C1	C2	0.11161
C1	C6	0.11942
C2	C3	0.12674
C2	C11	0.12778
C3	C7	0.11835
C3	H14	0.07672
H2	C27	0.07672
C4	H3	0.08423
C4	C5	0.12005
C4	C10	0.11033
C5	H4	0.07613
C6	H5	0.07674
C7	F1	0.12633
C8	C9	0.11811
C8	F2	0.12340
C9	C10	0.12411
C9	H18	0.07620
H6	C33	0.07620
C10	C12	0.13036
C11	O12	0.10091
C12	O11	0.09985
Ni2	N4	0.17765
Ni2	O9	0.16964
Ni2	O12	0.18811
Ni2	N7	0.18126
O5	C24	0.11290
O6	C23	0.11356
O7	C24	0.09985
O8	C23	0.10091
N3	C18	0.12277
N3	C19	0.10760
N3	Ni4	0.18126
N4	C17	0.11881
N4	C20	0.10851
C13	H7	0.08628
C13	C14	0.11161
C13	C18	0.11942
C14	C15	0.12674
C14	C23	0.12778
C15	H8	0.07672
C15	C19	0.11835
C16	H9	0.08423
C16	C17	0.12005
C16	C22	0.11033
C17	F4	0.11124
C18	H22	0.07674
H10	C42	0.07674
C19	F3	0.12633
C20	H11	0.08420
C20	C21	0.11811
C21	H12	0.07620
C21	C22	0.12411
C22	C24	0.13036
Ni3	N5	0.18126
Ni3	N6	0.17765
Ni3	O13	0.16964
Ni3	O14	0.16761
Ni3	O15	0.19245
Ni3	O16	0.18811
O9	C36	0.11290
O10	C35	0.11356
O10	Ni4	0.16761
O11	Ni4	0.19245
N5	C30	0.12277
N5	C31	0.10760
N6	C29	0.11881
N6	C32	0.10851
C25	H13	0.08628
C25	C26	0.11161
C25	C30	0.11942
C26	C27	0.12674
C26	C35	0.12778
C27	C31	0.11835
C28	H15	0.08423
C28	C29	0.12005
C28	C34	0.11033
C29	H16	0.07613
C30	H17	0.07674
C31	F5	0.12633
C32	C33	0.11811
C32	F6	0.12340
C33	C34	0.12411
C34	C36	0.13036
Ni4	N8	0.17765
O13	C48	0.11290
O14	C47	0.11356
O15	C48	0.09985
O16	C47	0.10091
N7	C42	0.12277
N7	C43	0.10760
N8	C41	0.11881
N8	C44	0.10851
C37	H19	0.08628
C37	C38	0.11161
C37	C42	0.11942
C38	C39	0.12674
C38	C47	0.12778
C39	H20	0.07672
C39	C43	0.11835
C40	H21	0.08423
C40	C41	0.12005
C40	C46	0.11033
C41	F8	0.11124
C43	F7	0.12633
C44	H23	0.08420
C44	C45	0.11811
C45	H24	0.07620
C45	C46	0.12411
C46	C48	0.13036
