data_NiPyC2_experiment_NiPyC2_experiment_aligned_CH2-CH2-CH3_NiPyC2_experiment_aligned_CH2-CH2-CH3_NiPyC2_experiment_aligned_CH2-CH2-CH3_NiPyC2_experiment_aligned_CH2-CH2-CH3_NiPyC2_experiment_aligned_CH2-CH2-CH3_NiPyC2_experiment_aligned_CH2-CH2-CH3_NiPyC2_experiment_aligned_CH2-CH2-CH3_NiPyC2_experiment_aligned_CH2-CH2-CH3_PM
_symmetry_space_group_name_H-M	'P1'
_cell_length_a	12.505600
_cell_length_b	12.523400
_cell_length_c	10.276800
_cell_angle_alpha	90.000000
_cell_angle_beta	91.269000
_cell_angle_gamma	90.000000
_symmetry_Int_Tables_number 1

loop_
_symmetry_equiv_pos_as_xyz
'x,y,z'

loop_
_atom_site_label
_atom_site_type_symbol
_atom_site_fract_x
_atom_site_fract_y
_atom_site_fract_z
Ni1	Ni	0.247400	0.753960	0.839430
O1	O	0.120650	0.349620	0.392900
O2	O	0.377450	0.133080	0.370200
O3	O	0.468450	0.352230	0.497300
O4	O	0.033250	0.119800	0.474200
N1	N	0.313950	0.842900	0.696200
N2	N	0.180550	0.646100	0.715100
C1	C	0.293900	0.959300	0.513400
H1	H	0.250100	0.986200	0.444100
C2	C	0.396600	0.998000	0.533700
C3	C	0.458550	0.954600	0.635400
H2	H	0.030100	0.977800	0.650500
C4	C	0.203850	0.519100	0.544100
H3	H	0.247550	0.491000	0.477800
C5	C	0.240150	0.603200	0.621700
H4	H	0.309550	0.631300	0.607900
C6	C	0.255750	0.880900	0.595000
H5	H	0.186050	0.853000	0.579100
C7	C	0.414250	0.877700	0.713700
C8	C	0.082250	0.604500	0.734600
C9	C	0.041300	0.520300	0.662600
H6	H	0.472300	0.492500	0.679100
C10	C	0.103950	0.477000	0.564600
C11	C	0.439000	0.089300	0.455000
C12	C	0.061000	0.386200	0.481500
Ni2	Ni	0.497400	0.246040	0.339430
O5	O	0.370650	0.650380	0.892900
O6	O	0.127450	0.866920	0.870200
O7	O	0.218450	0.647770	0.997300
O8	O	0.283250	0.880200	0.974200
N3	N	0.063950	0.157100	0.196200
N4	N	0.430550	0.353900	0.215100
C13	C	0.043900	0.040700	0.013400
H7	H	0.000100	0.013800	0.944100
C14	C	0.146600	0.002000	0.033700
C15	C	0.208550	0.045400	0.135400
H8	H	0.280100	0.022200	0.150500
C16	C	0.453850	0.480900	0.044100
H9	H	0.497550	0.509000	0.977800
C17	C	0.490150	0.396800	0.121700
H10	H	0.059550	0.368700	0.107900
C18	C	0.005750	0.119100	0.095000
H11	H	0.436050	0.147000	0.079100
C19	C	0.164250	0.122300	0.213700
H12	H	0.206650	0.151700	0.282600
C20	C	0.332250	0.395500	0.234600
H13	H	0.289650	0.365400	0.300700
C21	C	0.291300	0.479700	0.162600
H14	H	0.222300	0.507500	0.179100
C22	C	0.353950	0.523000	0.064600
C23	C	0.189000	0.910700	0.955000
C24	C	0.311000	0.613800	0.981500
Ni3	Ni	0.747400	0.753960	0.839430
O9	O	0.620650	0.349620	0.392900
O10	O	0.877450	0.133080	0.370200
O11	O	0.968450	0.352230	0.497300
O12	O	0.533250	0.119800	0.474200
N5	N	0.813950	0.842900	0.696200
N6	N	0.680550	0.646100	0.715100
C25	C	0.793900	0.959300	0.513400
H15	H	0.750100	0.986200	0.444100
C26	C	0.896600	0.998000	0.533700
C27	C	0.958550	0.954600	0.635400
H16	H	0.530100	0.977800	0.650500
C28	C	0.703850	0.519100	0.544100
H17	H	0.747550	0.491000	0.477800
C29	C	0.740150	0.603200	0.621700
C30	C	0.755750	0.880900	0.595000
H18	H	0.686050	0.853000	0.579100
C31	C	0.914250	0.877700	0.713700
C32	C	0.582250	0.604500	0.734600
H19	H	0.539650	0.634600	0.800700
C33	C	0.541300	0.520300	0.662600
H20	H	0.972300	0.492500	0.679100
C34	C	0.603950	0.477000	0.564600
C35	C	0.939000	0.089300	0.455000
C36	C	0.561000	0.386200	0.481500
Ni4	Ni	0.997400	0.246040	0.339430
O13	O	0.870650	0.650380	0.892900
O14	O	0.627450	0.866920	0.870200
O15	O	0.718450	0.647770	0.997300
O16	O	0.783250	0.880200	0.974200
N7	N	0.563950	0.157100	0.196200
N8	N	0.930550	0.353900	0.215100
C37	C	0.543900	0.040700	0.013400
H21	H	0.500100	0.013800	0.944100
C38	C	0.646600	0.002000	0.033700
C39	C	0.708550	0.045400	0.135400
H22	H	0.780100	0.022200	0.150500
C40	C	0.953850	0.480900	0.044100
H23	H	0.997550	0.509000	0.977800
C41	C	0.990150	0.396800	0.121700
C42	C	0.505750	0.119100	0.095000
C43	C	0.664250	0.122300	0.213700
C44	C	0.832250	0.395500	0.234600
C45	C	0.791300	0.479700	0.162600
H24	H	0.722300	0.507500	0.179100
C46	C	0.853950	0.523000	0.064600
C47	C	0.689000	0.910700	0.955000
C48	C	0.811000	0.613800	0.981500
C49	C	0.485250	0.829269	0.828243
C50	C	0.431638	0.743832	0.912332
H25	H	0.557136	0.792093	0.785434
H26	H	0.510141	0.895607	0.894113
C51	C	0.508114	0.703446	1.019238
H27	H	0.360128	0.778238	0.959172
H28	H	0.407093	0.674791	0.850560
H29	H	0.533274	0.770160	1.084250
H30	H	0.467405	0.642008	1.078282
H31	H	0.580101	0.667020	0.975958
C52	C	0.011499	0.654495	0.844417
C53	C	0.061184	0.748106	0.921536
H32	H	-0.006740	0.590481	0.915517
H33	H	-0.064074	0.683969	0.798108
C54	C	-0.015039	0.789000	1.024308
H34	H	0.078996	0.815022	0.854298
H35	H	0.136294	0.721591	0.971631
H36	H	-0.090671	0.817697	0.977594
H37	H	0.022803	0.856387	1.078360
H38	H	-0.033543	0.724542	1.094580
C55	C	-0.109904	0.165078	0.067868
C56	C	-0.147752	0.252062	0.161997
H39	H	-0.112221	0.200023	-0.031601
H40	H	-0.167806	0.097915	0.072793
C57	C	-0.260535	0.289900	0.125515
H41	H	-0.148567	0.219870	0.262796
H42	H	-0.093016	0.321912	0.158467
H43	H	-0.317933	0.222354	0.129768
H44	H	-0.285741	0.352521	0.194919
H45	H	-0.262546	0.324093	0.025747
C58	C	0.605469	0.350989	0.098150
C59	C	0.641225	0.258088	0.186868
H46	H	0.664159	0.416796	0.112927
H47	H	0.608352	0.321996	-0.003960
C60	C	0.753846	0.220794	0.154786
H48	H	0.585653	0.189470	0.173459
H49	H	0.641424	0.284211	0.290271
H50	H	0.756436	0.192570	0.052424
H51	H	0.777530	0.153849	0.220152
H52	H	0.812042	0.287032	0.168891
C61	C	0.985250	0.829269	0.828243
C62	C	0.931638	0.743832	0.912332
H53	H	1.057136	0.792093	0.785434
H54	H	1.010141	0.895607	0.894113
C63	C	1.008114	0.703446	1.019238
H55	H	0.860128	0.778238	0.959172
H56	H	0.907093	0.674791	0.850560
H57	H	1.033274	0.770160	1.084250
H58	H	0.967405	0.642008	1.078282
H59	H	1.080101	0.667020	0.975958
C64	C	0.855468	0.649013	0.598148
C65	C	0.891222	0.741917	0.686861
H60	H	0.858350	0.678004	0.496037
H61	H	0.914159	0.583207	0.612926
C66	C	1.003842	0.779214	0.654777
H62	H	0.891423	0.715797	0.790267
H63	H	0.835648	0.810533	0.673450
H64	H	1.062040	0.712978	0.668885
H65	H	1.027524	0.846162	0.720139
H66	H	1.006430	0.807433	0.552413
C67	C	0.735249	0.170729	0.328245
C68	C	0.681636	0.256162	0.412338
H67	H	0.760141	0.104390	0.394113
H68	H	0.807135	0.207907	0.285437
C69	C	0.758110	0.296546	0.519246
H69	H	0.657090	0.325206	0.350570
H70	H	0.610126	0.221753	0.459175
H71	H	0.830097	0.332977	0.475970
H72	H	0.717399	0.357980	0.578294
H73	H	0.783272	0.229829	0.584253
C70	C	0.761498	0.345503	0.344415
C71	C	0.811180	0.251889	0.421530
H74	H	0.685925	0.316031	0.298105
H75	H	0.743260	0.409516	0.415517
C72	C	0.734957	0.210993	0.524299
H76	H	0.886291	0.278401	0.471627
H77	H	0.828993	0.184976	0.354288
H78	H	0.716454	0.275448	0.594575
H79	H	0.772797	0.143603	0.578347
H80	H	0.659324	0.182300	0.477583

loop_
_geom_bond_atom_site_label_1
_geom_bond_atom_site_label_2
_geom_bond_distance
Ni1	N1	0.18126
Ni1	N2	0.17765
Ni1	O5	0.16964
Ni1	O6	0.16761
Ni1	O7	0.19245
Ni1	O8	0.18811
O1	C12	0.11290
O1	Ni4	0.16964
O2	C11	0.11356
O2	Ni2	0.16761
O3	Ni2	0.19245
O3	C36	0.09985
O4	C35	0.10091
O4	Ni4	0.18811
N1	C6	0.12277
N1	C7	0.10760
N2	C5	0.11881
N2	C8	0.10851
C1	H1	0.08628
C1	C2	0.11161
C1	C6	0.11942
C2	C3	0.12674
C2	C11	0.12778
C3	C7	0.11835
C3	H16	0.07672
H2	C27	0.07672
C4	H3	0.08423
C4	C5	0.12005
C4	C10	0.11033
C5	H4	0.07613
C6	H5	0.07674
C7	C49	0.14320
C8	C9	0.11811
C8	C52	0.13987
C9	C10	0.12411
C9	H20	0.07620
H6	C33	0.07620
C10	C12	0.13036
C11	O12	0.10091
C12	O11	0.09985
Ni2	N4	0.17765
Ni2	O9	0.16964
Ni2	O12	0.18811
Ni2	N7	0.18126
O5	C24	0.11290
O6	C23	0.11356
O7	C24	0.09985
O8	C23	0.10091
N3	C18	0.12277
N3	C19	0.10760
N3	Ni4	0.18126
N4	C17	0.11881
N4	C20	0.10851
C13	H7	0.08628
C13	C14	0.11161
C13	C18	0.11942
C14	C15	0.12674
C14	C23	0.12778
C15	H8	0.07672
C15	C19	0.11835
C16	H9	0.08423
C16	C17	0.12005
C16	C22	0.11033
C17	C58	0.12630
H10	C41	0.07613
C18	C55	0.12738
H11	C42	0.07674
C19	H12	0.08608
C20	H13	0.08420
C20	C21	0.11811
C21	H14	0.07620
C21	C22	0.12411
C22	C24	0.13036
Ni3	N5	0.18126
Ni3	N6	0.17765
Ni3	O13	0.16964
Ni3	O14	0.16761
Ni3	O15	0.19245
Ni3	O16	0.18811
O9	C36	0.11290
O10	C35	0.11356
O10	Ni4	0.16761
O11	Ni4	0.19245
N5	C30	0.12277
N5	C31	0.10760
N6	C29	0.11881
N6	C32	0.10851
C25	H15	0.08628
C25	C26	0.11161
C25	C30	0.11942
C26	C27	0.12674
C26	C35	0.12778
C27	C31	0.11835
C28	H17	0.08423
C28	C29	0.12005
C28	C34	0.11033
C29	C64	0.12630
C30	H18	0.07674
C31	C61	0.14320
C32	H19	0.08420
C32	C33	0.11811
C33	C34	0.12411
C34	C36	0.13036
Ni4	N8	0.17765
O13	C48	0.11290
O14	C47	0.11356
O15	C48	0.09985
O16	C47	0.10091
N7	C42	0.12277
N7	C43	0.10760
N8	C41	0.11881
N8	C44	0.10851
C37	H21	0.08628
C37	C38	0.11161
C37	C42	0.11942
C38	C39	0.12674
C38	C47	0.12778
C39	H22	0.07672
C39	C43	0.11835
C40	H23	0.08423
C40	C41	0.12005
C40	C46	0.11033
C43	C67	0.14320
C44	C45	0.11811
C44	C70	0.13987
C45	H24	0.07620
C45	C46	0.12411
C46	C48	0.13036
C49	C50	0.13132
C49	H25	0.09156
C49	H26	0.09674
C50	C51	0.13751
C50	H27	0.09215
C50	H28	0.09584
C51	H29	0.09649
C51	H30	0.09444
C51	H31	0.09155
C52	C53	0.13107
C52	H32	0.09739
C52	H33	0.09340
C53	C54	0.13433
C53	H34	0.09652
C53	H35	0.09410
C54	H36	0.09341
C54	H37	0.09431
C54	H38	0.09714
C55	C56	0.13364
C55	H39	0.10545
C55	H40	0.08881
C56	C57	0.12443
C56	H41	0.10582
C56	H42	0.08881
C57	H43	0.08874
C57	H44	0.09682
C57	H45	0.10548
C58	C59	0.13334
C58	H46	0.08941
C58	H47	0.10619
C59	C60	0.12290
C59	H48	0.08931
C59	H49	0.10665
C60	H50	0.10621
C60	H51	0.09652
C60	H52	0.08929
C61	C62	0.13132
C61	H53	0.09156
C61	H54	0.09674
C62	C63	0.13751
C62	H55	0.09215
C62	H56	0.09584
C63	H57	0.09649
C63	H58	0.09444
C63	H59	0.09155
C64	C65	0.13334
C64	H60	0.10619
C64	H61	0.08941
C65	C66	0.12290
C65	H62	0.10665
C65	H63	0.08931
C66	H64	0.08929
C66	H65	0.09651
C66	H66	0.10621
C67	C68	0.13132
C67	H67	0.09674
C67	H68	0.09155
C68	C69	0.13751
C68	H69	0.09584
C68	H70	0.09215
C69	H71	0.09155
C69	H72	0.09444
C69	H73	0.09649
C70	C71	0.13107
C70	H74	0.09340
C70	H75	0.09739
C71	C72	0.13433
C71	H76	0.09410
C71	H77	0.09652
C72	H78	0.09714
C72	H79	0.09431
C72	H80	0.09341
