data_NiPyC2_relax_sc211_meta_functionalized_NH2_pbesol_relaxNiPyC2_relax_sc211_meta_functionalized_NH2_pbesol_relax_comp2_PM
_symmetry_space_group_name_H-M	'P1'
_cell_length_a	25.011234
_cell_length_b	25.046824
_cell_length_c	20.553620
_cell_angle_alpha	90.000000
_cell_angle_beta	91.268973
_cell_angle_gamma	90.000000
_symmetry_Int_Tables_number 1

loop_
_symmetry_equiv_pos_as_xyz
'x,y,z'

loop_
_atom_site_label
_atom_site_type_symbol
_atom_site_fract_x
_atom_site_fract_y
_atom_site_fract_z
C1	C	0.196249	0.002106	0.269943
C2	C	0.067224	0.492630	0.021667
C3	C	0.230654	0.232152	0.011806
C4	C	0.248496	0.189654	0.052947
C5	C	0.165767	0.184333	0.100645
C6	C	0.145408	0.226575	0.063068
C7	C	0.177667	0.252503	0.018775
C8	C	0.217413	0.046921	0.232073
C9	C	0.391593	0.488744	0.261995
C10	C	0.273023	0.020262	0.008768
C11	C	0.471990	0.491712	0.328228
C12	C	0.352444	0.013045	0.076156
C13	C	0.359027	0.254166	0.275992
C14	C	0.378059	0.297328	0.315518
C15	C	0.373964	0.446410	0.300540
C16	C	0.255653	0.061601	0.050589
C17	C	0.451597	0.447962	0.364489
C18	C	0.331877	0.053040	0.116217
C19	C	0.291727	0.317355	0.346367
C20	C	0.269906	0.276070	0.308371
C21	C	0.302683	0.243852	0.271278
C22	C	0.342788	0.450869	0.482106
C23	C	0.281327	0.199517	0.231693
C24	C	0.410241	0.305012	0.482965
H1	H	0.010455	0.261028	0.482262
H2	H	0.217850	0.081825	0.040271
H3	H	0.141263	0.163323	0.135280
H4	H	0.227175	0.268354	0.310507
H5	H	0.104763	0.240203	0.070379
H6	H	0.420710	0.305932	0.319749
H7	H	0.288950	0.174024	0.048790
H8	H	0.335672	0.427044	0.291392
H9	H	0.475289	0.431256	0.404741
H10	H	0.354031	0.067312	0.158775
H11	H	0.266734	0.342416	0.376167
H12	H	0.065184	0.013521	0.234891
H13	H	0.121294	0.047184	0.205820
H14	H	0.166518	0.475938	0.053938
H15	H	0.039329	0.492480	0.385369
H16	H	0.253953	0.474581	0.430701
H17	H	0.434582	0.222356	0.252146
H18	H	0.376831	0.190553	0.222012
N1	N	0.217375	0.168088	0.097986
N2	N	0.403668	0.427014	0.351386
N3	N	0.283593	0.076026	0.103797
N4	N	0.345052	0.327354	0.350322
N5	N	0.105868	0.015556	0.231035
N6	N	0.393417	0.222306	0.246889
Ni1	Ni	0.249772	0.122474	0.169916
Ni2	Ni	0.375262	0.377678	0.417532
O1	O	0.188828	0.070640	0.186362
O2	O	0.233893	0.181483	0.237110
O3	O	0.310092	0.175507	0.188292
O4	O	0.438163	0.330005	0.440964
O5	O	0.313484	0.427962	0.437466
O6	O	0.361262	0.321003	0.487013
O7	O	0.264137	0.066085	0.241189
O8	O	0.390261	0.432221	0.488887
C25	C	0.140527	0.488797	0.768582
C26	C	0.013270	0.006667	0.518714
C27	C	0.229052	0.472037	0.811339
C28	C	0.101023	0.021593	0.566058
C29	C	0.108249	0.265331	0.766778
C30	C	0.124193	0.307819	0.808777
C31	C	0.121592	0.447594	0.810078
C32	C	0.493850	0.047518	0.558295
C33	C	0.207177	0.432462	0.850949
C34	C	0.078788	0.065040	0.600881
C35	C	0.043297	0.304718	0.862260
C36	C	0.024879	0.262949	0.822353
C37	C	0.056660	0.241920	0.773857
C38	C	0.088673	0.449047	0.982621
C39	C	0.037773	0.197431	0.732940
C40	C	0.157982	0.299272	0.982436
C41	C	0.441159	0.012462	0.774438
C42	C	0.323172	0.494858	0.522234
C43	C	0.483516	0.242240	0.516118
C44	C	0.002511	0.199897	0.554662
C45	C	0.420536	0.190006	0.603990
C46	C	0.399146	0.234867	0.569756
C47	C	0.431396	0.260867	0.522652
C48	C	0.462042	0.055386	0.733479
H19	H	0.163350	0.326378	0.803985
H20	H	0.043106	0.184940	0.551160
H21	H	0.079329	0.437056	0.809576
H22	H	0.231739	0.409801	0.885244
H23	H	0.104442	0.090160	0.631494
H24	H	0.018943	0.321184	0.900543
H25	H	0.365766	0.002669	0.722392
H26	H	0.484839	0.484800	0.988122
H27	H	0.271619	0.480444	0.815375
H28	H	0.390966	0.495382	0.588704
H29	H	0.451696	0.057963	0.558773
H30	H	0.395278	0.166893	0.635993
H31	H	0.485760	0.246096	0.831714
H32	H	0.172669	0.028395	0.614970
H33	H	0.180739	0.260215	0.721828
H34	H	0.130704	0.215243	0.695662
H35	H	0.303163	0.242038	0.967467
H36	H	0.250634	0.285417	0.942759
H37	H	0.034089	0.043752	0.823420
H38	H	0.204703	0.022342	0.951389
H39	H	0.329804	0.231124	0.620232
H40	H	0.334854	0.283596	0.559770
N7	N	0.154069	0.421741	0.851814
N8	N	0.026624	0.075827	0.599125
N9	N	0.092730	0.326031	0.855351
N10	N	0.471302	0.174904	0.598537
N11	N	0.152135	0.009030	0.577704
N12	N	0.141875	0.248181	0.722275
N13	N	0.263965	0.252867	0.968916
N14	N	0.019064	0.011678	0.848154
N15	N	0.241674	0.006099	0.958557
N16	N	0.350052	0.251076	0.584610
Ni3	Ni	0.123593	0.374914	0.921669
Ni4	Ni	0.000082	0.125388	0.665960
O9	O	0.066374	0.173264	0.690750
O10	O	0.186836	0.324870	0.941180
O11	O	0.060984	0.426311	0.936795
O12	O	0.110670	0.317833	0.989509
O13	O	0.011659	0.070029	0.738406
O14	O	0.136843	0.431299	0.990554
O15	O	0.434298	0.080367	0.690119
O16	O	0.489517	0.180167	0.737143
C49	C	0.140527	0.988797	0.268583
C50	C	0.013270	0.506667	0.018714
C51	C	0.229052	0.972037	0.311339
C52	C	0.101023	0.521593	0.066058
C53	C	0.108249	0.765331	0.266778
C54	C	0.124193	0.807819	0.308777
C55	C	0.121592	0.947594	0.310078
C56	C	0.493850	0.547519	0.058294
C57	C	0.207177	0.932462	0.350949
C58	C	0.078788	0.565040	0.100881
C59	C	0.043297	0.804718	0.362260
C60	C	0.024879	0.762949	0.322352
C61	C	0.056660	0.741920	0.273857
C62	C	0.088673	0.949047	0.482621
C63	C	0.037773	0.697431	0.232940
C64	C	0.157982	0.799272	0.482436
C65	C	0.441159	0.512463	0.274438
C66	C	0.323172	0.994858	0.022234
C67	C	0.483516	0.742240	0.016118
C68	C	0.002511	0.699897	0.054662
C69	C	0.420536	0.690006	0.103990
C70	C	0.399146	0.734867	0.069756
C71	C	0.431396	0.760867	0.022652
C72	C	0.462042	0.555387	0.233479
H41	H	0.163350	0.826378	0.303985
H42	H	0.043106	0.684940	0.051159
H43	H	0.079329	0.937056	0.309576
H44	H	0.231739	0.909801	0.385244
H45	H	0.104442	0.590159	0.131494
H46	H	0.018943	0.821184	0.400543
H47	H	0.365766	0.502669	0.222392
H48	H	0.484839	0.984800	0.488122
H49	H	0.271619	0.980444	0.315375
H50	H	0.390966	0.995382	0.088705
H51	H	0.451696	0.557963	0.058772
H52	H	0.395278	0.666893	0.135993
H53	H	0.485760	0.746096	0.331714
H54	H	0.172669	0.528395	0.114970
H55	H	0.180739	0.760215	0.221829
H56	H	0.130704	0.715243	0.195662
H57	H	0.303163	0.742039	0.467467
H58	H	0.250634	0.785417	0.442758
H59	H	0.034089	0.543752	0.323420
H60	H	0.204703	0.522342	0.451389
H61	H	0.329804	0.731124	0.120232
H62	H	0.334854	0.783596	0.059770
N17	N	0.154069	0.921741	0.351814
N18	N	0.026624	0.575827	0.099125
N19	N	0.092730	0.826031	0.355351
N20	N	0.471302	0.674905	0.098538
N21	N	0.152135	0.509030	0.077704
N22	N	0.141875	0.748182	0.222275
N23	N	0.263965	0.752867	0.468916
N24	N	0.019064	0.511679	0.348154
N25	N	0.241674	0.506099	0.458558
N26	N	0.350052	0.751076	0.084610
Ni5	Ni	0.123593	0.874915	0.421669
Ni6	Ni	0.000082	0.625388	0.165960
O17	O	0.066374	0.673264	0.190750
O18	O	0.186836	0.824870	0.441180
O19	O	0.060984	0.926311	0.436795
O20	O	0.110670	0.817833	0.489509
O21	O	0.011659	0.570029	0.238405
O22	O	0.136843	0.931299	0.490554
O23	O	0.434298	0.580367	0.190119
O24	O	0.489517	0.680167	0.237143
C73	C	0.196249	0.502106	0.769943
C74	C	0.067224	0.992630	0.521667
C75	C	0.230654	0.732152	0.511806
C76	C	0.248496	0.689654	0.552947
C77	C	0.165767	0.684333	0.600645
C78	C	0.145408	0.726575	0.563068
C79	C	0.177667	0.752503	0.518775
C80	C	0.217413	0.546921	0.732073
C81	C	0.391593	0.988744	0.761995
C82	C	0.273023	0.520262	0.508768
C83	C	0.471990	0.991712	0.828228
C84	C	0.352444	0.513046	0.576156
C85	C	0.359027	0.754166	0.775992
C86	C	0.378059	0.797327	0.815518
C87	C	0.373964	0.946411	0.800539
C88	C	0.255653	0.561600	0.550589
C89	C	0.451597	0.947962	0.864489
C90	C	0.331877	0.553040	0.616216
C91	C	0.291727	0.817355	0.846367
C92	C	0.269906	0.776069	0.808371
C93	C	0.302683	0.743853	0.771278
C94	C	0.342788	0.950869	0.982106
C95	C	0.281327	0.699516	0.731693
C96	C	0.410241	0.805012	0.982965
H63	H	0.010455	0.761028	0.982263
H64	H	0.217850	0.581825	0.540271
H65	H	0.141263	0.663323	0.635281
H66	H	0.227175	0.768354	0.810507
H67	H	0.104763	0.740203	0.570379
H68	H	0.420710	0.805932	0.819749
H69	H	0.288950	0.674024	0.548790
H70	H	0.335672	0.927044	0.791392
H71	H	0.475289	0.931256	0.904741
H72	H	0.354031	0.567312	0.658775
H73	H	0.266734	0.842416	0.876167
H74	H	0.065184	0.513521	0.734891
H75	H	0.121294	0.547184	0.705820
H76	H	0.166518	0.975939	0.553938
H77	H	0.039329	0.992480	0.885369
H78	H	0.253953	0.974581	0.930701
H79	H	0.434582	0.722356	0.752146
H80	H	0.376831	0.690553	0.722012
N27	N	0.217375	0.668088	0.597986
N28	N	0.403668	0.927014	0.851386
N29	N	0.283593	0.576026	0.603797
N30	N	0.345052	0.827354	0.850322
N31	N	0.105868	0.515556	0.731035
N32	N	0.393417	0.722306	0.746889
Ni7	Ni	0.249772	0.622474	0.669916
Ni8	Ni	0.375262	0.877678	0.917532
O25	O	0.188828	0.570640	0.686362
O26	O	0.233893	0.681483	0.737110
O27	O	0.310092	0.675507	0.688292
O28	O	0.438163	0.830005	0.940964
O29	O	0.313484	0.927962	0.937466
O30	O	0.361262	0.821003	0.987013
O31	O	0.264137	0.566085	0.741189
O32	O	0.390261	0.932222	0.988887
C97	C	0.696249	0.002106	0.269943
C98	C	0.567223	0.492630	0.021667
C99	C	0.730654	0.232152	0.011806
C100	C	0.748495	0.189654	0.052947
C101	C	0.665767	0.184333	0.100645
C102	C	0.645408	0.226575	0.063068
C103	C	0.677667	0.252503	0.018775
C104	C	0.717413	0.046921	0.232073
C105	C	0.891593	0.488744	0.261995
C106	C	0.773023	0.020262	0.008768
C107	C	0.971990	0.491712	0.328228
C108	C	0.852444	0.013045	0.076156
C109	C	0.859028	0.254166	0.275992
C110	C	0.878059	0.297328	0.315518
C111	C	0.873964	0.446410	0.300540
C112	C	0.755653	0.061601	0.050589
C113	C	0.951597	0.447962	0.364489
C114	C	0.831877	0.053040	0.116217
C115	C	0.791727	0.317355	0.346367
C116	C	0.769907	0.276070	0.308371
C117	C	0.802683	0.243852	0.271278
C118	C	0.842788	0.450869	0.482106
C119	C	0.781327	0.199517	0.231693
C120	C	0.910241	0.305012	0.482965
H81	H	0.510455	0.261028	0.482262
H82	H	0.717850	0.081825	0.040271
H83	H	0.641263	0.163323	0.135280
H84	H	0.727175	0.268354	0.310507
H85	H	0.604763	0.240203	0.070379
H86	H	0.920710	0.305932	0.319749
H87	H	0.788950	0.174024	0.048790
H88	H	0.835672	0.427044	0.291392
H89	H	0.975289	0.431256	0.404741
H90	H	0.854031	0.067312	0.158775
H91	H	0.766733	0.342416	0.376167
H92	H	0.565184	0.013521	0.234891
H93	H	0.621294	0.047184	0.205820
H94	H	0.666517	0.475938	0.053938
H95	H	0.539328	0.492480	0.385369
H96	H	0.753953	0.474581	0.430701
H97	H	0.934582	0.222356	0.252146
H98	H	0.876831	0.190553	0.222012
N33	N	0.717375	0.168088	0.097986
N34	N	0.903668	0.427014	0.351386
N35	N	0.783593	0.076026	0.103797
N36	N	0.845052	0.327354	0.350322
N37	N	0.605868	0.015556	0.231035
N38	N	0.893417	0.222306	0.246889
Ni9	Ni	0.749772	0.122474	0.169916
Ni10	Ni	0.875263	0.377678	0.417532
O33	O	0.688828	0.070640	0.186362
O34	O	0.733893	0.181483	0.237110
O35	O	0.810092	0.175507	0.188292
O36	O	0.938163	0.330005	0.440964
O37	O	0.813484	0.427962	0.437466
O38	O	0.861262	0.321003	0.487013
O39	O	0.764137	0.066085	0.241189
O40	O	0.890261	0.432221	0.488887
C121	C	0.640527	0.488797	0.768582
C122	C	0.513270	0.006667	0.518714
C123	C	0.729052	0.472037	0.811339
C124	C	0.601023	0.021593	0.566058
C125	C	0.608249	0.265331	0.766778
C126	C	0.624193	0.307819	0.808777
C127	C	0.621592	0.447594	0.810078
C128	C	0.993850	0.047518	0.558295
C129	C	0.707177	0.432462	0.850949
C130	C	0.578788	0.065040	0.600881
C131	C	0.543297	0.304718	0.862260
C132	C	0.524879	0.262949	0.822353
C133	C	0.556660	0.241920	0.773857
C134	C	0.588673	0.449047	0.982621
C135	C	0.537772	0.197431	0.732940
C136	C	0.657982	0.299272	0.982436
C137	C	0.941159	0.012462	0.774438
C138	C	0.823171	0.494858	0.522234
C139	C	0.983516	0.242240	0.516118
C140	C	0.502511	0.199897	0.554662
C141	C	0.920536	0.190006	0.603990
C142	C	0.899146	0.234867	0.569756
C143	C	0.931396	0.260867	0.522652
C144	C	0.962042	0.055386	0.733479
H99	H	0.663350	0.326378	0.803985
H100	H	0.543106	0.184940	0.551160
H101	H	0.579330	0.437056	0.809576
H102	H	0.731739	0.409801	0.885244
H103	H	0.604442	0.090160	0.631494
H104	H	0.518943	0.321184	0.900543
H105	H	0.865766	0.002669	0.722392
H106	H	0.984838	0.484800	0.988122
H107	H	0.771619	0.480444	0.815375
H108	H	0.890966	0.495382	0.588704
H109	H	0.951696	0.057963	0.558773
H110	H	0.895278	0.166893	0.635993
H111	H	0.985760	0.246096	0.831714
H112	H	0.672669	0.028395	0.614970
H113	H	0.680740	0.260215	0.721828
H114	H	0.630704	0.215243	0.695662
H115	H	0.803163	0.242038	0.967467
H116	H	0.750633	0.285417	0.942759
H117	H	0.534088	0.043752	0.823420
H118	H	0.704703	0.022342	0.951389
H119	H	0.829804	0.231124	0.620232
H120	H	0.834855	0.283596	0.559770
N39	N	0.654069	0.421741	0.851814
N40	N	0.526624	0.075827	0.599125
N41	N	0.592731	0.326031	0.855351
N42	N	0.971302	0.174904	0.598537
N43	N	0.652135	0.009030	0.577704
N44	N	0.641876	0.248181	0.722275
N45	N	0.763965	0.252867	0.968916
N46	N	0.519064	0.011678	0.848154
N47	N	0.741675	0.006099	0.958557
N48	N	0.850051	0.251076	0.584610
Ni11	Ni	0.623593	0.374914	0.921669
Ni12	Ni	0.500082	0.125388	0.665960
O41	O	0.566374	0.173264	0.690750
O42	O	0.686836	0.324870	0.941180
O43	O	0.560983	0.426311	0.936795
O44	O	0.610669	0.317833	0.989509
O45	O	0.511660	0.070029	0.738406
O46	O	0.636843	0.431299	0.990554
O47	O	0.934298	0.080367	0.690119
O48	O	0.989518	0.180167	0.737143
C145	C	0.640527	0.988797	0.268583
C146	C	0.513270	0.506667	0.018714
C147	C	0.729052	0.972037	0.311339
C148	C	0.601023	0.521593	0.066058
C149	C	0.608249	0.765331	0.266778
C150	C	0.624193	0.807819	0.308777
C151	C	0.621592	0.947594	0.310078
C152	C	0.993850	0.547519	0.058294
C153	C	0.707177	0.932462	0.350949
C154	C	0.578788	0.565040	0.100881
C155	C	0.543297	0.804718	0.362260
C156	C	0.524879	0.762949	0.322352
C157	C	0.556660	0.741920	0.273857
C158	C	0.588673	0.949047	0.482621
C159	C	0.537772	0.697431	0.232940
C160	C	0.657982	0.799272	0.482436
C161	C	0.941159	0.512463	0.274438
C162	C	0.823171	0.994858	0.022234
C163	C	0.983516	0.742240	0.016118
C164	C	0.502511	0.699897	0.054662
C165	C	0.920536	0.690006	0.103990
C166	C	0.899146	0.734867	0.069756
C167	C	0.931396	0.760867	0.022652
C168	C	0.962042	0.555387	0.233479
H121	H	0.663350	0.826378	0.303985
H122	H	0.543106	0.684940	0.051159
H123	H	0.579330	0.937056	0.309576
H124	H	0.731739	0.909801	0.385244
H125	H	0.604442	0.590159	0.131494
H126	H	0.518943	0.821184	0.400543
H127	H	0.865766	0.502669	0.222392
H128	H	0.984838	0.984800	0.488122
H129	H	0.771619	0.980444	0.315375
H130	H	0.890966	0.995382	0.088705
H131	H	0.951696	0.557963	0.058772
H132	H	0.895278	0.666893	0.135993
H133	H	0.985760	0.746096	0.331714
H134	H	0.672669	0.528395	0.114970
H135	H	0.680740	0.760215	0.221829
H136	H	0.630704	0.715243	0.195662
H137	H	0.803163	0.742039	0.467467
H138	H	0.750633	0.785417	0.442758
H139	H	0.534088	0.543752	0.323420
H140	H	0.704703	0.522342	0.451389
H141	H	0.829804	0.731124	0.120232
H142	H	0.834855	0.783596	0.059770
N49	N	0.654069	0.921741	0.351814
N50	N	0.526624	0.575827	0.099125
N51	N	0.592731	0.826031	0.355351
N52	N	0.971302	0.674905	0.098538
N53	N	0.652135	0.509030	0.077704
N54	N	0.641876	0.748182	0.222275
N55	N	0.763965	0.752867	0.468916
N56	N	0.519064	0.511679	0.348154
N57	N	0.741675	0.506099	0.458558
N58	N	0.850051	0.751076	0.084610
Ni13	Ni	0.623593	0.874915	0.421669
Ni14	Ni	0.500082	0.625388	0.165960
O49	O	0.566374	0.673264	0.190750
O50	O	0.686836	0.824870	0.441180
O51	O	0.560983	0.926311	0.436795
O52	O	0.610669	0.817833	0.489509
O53	O	0.511660	0.570029	0.238405
O54	O	0.636843	0.931299	0.490554
O55	O	0.934298	0.580367	0.190119
O56	O	0.989518	0.680167	0.237143
C169	C	0.696249	0.502106	0.769943
C170	C	0.567223	0.992630	0.521667
C171	C	0.730654	0.732152	0.511806
C172	C	0.748495	0.689654	0.552947
C173	C	0.665767	0.684333	0.600645
C174	C	0.645408	0.726575	0.563068
C175	C	0.677667	0.752503	0.518775
C176	C	0.717413	0.546921	0.732073
C177	C	0.891593	0.988744	0.761995
C178	C	0.773023	0.520262	0.508768
C179	C	0.971990	0.991712	0.828228
C180	C	0.852444	0.513046	0.576156
C181	C	0.859028	0.754166	0.775992
C182	C	0.878059	0.797327	0.815518
C183	C	0.873964	0.946411	0.800539
C184	C	0.755653	0.561600	0.550589
C185	C	0.951597	0.947962	0.864489
C186	C	0.831877	0.553040	0.616216
C187	C	0.791727	0.817355	0.846367
C188	C	0.769907	0.776069	0.808371
C189	C	0.802683	0.743853	0.771278
C190	C	0.842788	0.950869	0.982106
C191	C	0.781327	0.699516	0.731693
C192	C	0.910241	0.805012	0.982965
H143	H	0.510455	0.761028	0.982263
H144	H	0.717850	0.581825	0.540271
H145	H	0.641263	0.663323	0.635281
H146	H	0.727175	0.768354	0.810507
H147	H	0.604763	0.740203	0.570379
H148	H	0.920710	0.805932	0.819749
H149	H	0.788950	0.674024	0.548790
H150	H	0.835672	0.927044	0.791392
H151	H	0.975289	0.931256	0.904741
H152	H	0.854031	0.567312	0.658775
H153	H	0.766733	0.842416	0.876167
H154	H	0.565184	0.513521	0.734891
H155	H	0.621294	0.547184	0.705820
H156	H	0.666517	0.975939	0.553938
H157	H	0.539328	0.992480	0.885369
H158	H	0.753953	0.974581	0.930701
H159	H	0.934582	0.722356	0.752146
H160	H	0.876831	0.690553	0.722012
N59	N	0.717375	0.668088	0.597986
N60	N	0.903668	0.927014	0.851386
N61	N	0.783593	0.576026	0.603797
N62	N	0.845052	0.827354	0.850322
N63	N	0.605868	0.515556	0.731035
N64	N	0.893417	0.722306	0.746889
Ni15	Ni	0.749772	0.622474	0.669916
Ni16	Ni	0.875263	0.877678	0.917532
O57	O	0.688828	0.570640	0.686362
O58	O	0.733893	0.681483	0.737110
O59	O	0.810092	0.675507	0.688292
O60	O	0.938163	0.830005	0.940964
O61	O	0.813484	0.927962	0.937466
O62	O	0.861262	0.821003	0.987013
O63	O	0.764137	0.566085	0.741189
O64	O	0.890261	0.932222	0.988887

loop_
_geom_bond_atom_site_label_1
_geom_bond_atom_site_label_2
_geom_bond_distance
C1	C8	0.06237
C2	C50	0.05583
C2	C52	0.06286
C3	C4	0.06178
C3	C7	0.05719
C4	H7	0.04357
C4	N1	0.05884
C5	C6	0.06009
C5	H3	0.04734
C5	N1	0.05417
C6	C7	0.06062
C6	H5	0.04349
C8	O1	0.05890
C8	O7	0.05132
C9	C15	0.05990
C9	C65	0.05634
C9	H47	0.04929
C10	C16	0.06131
C11	C17	0.06037
C11	C65	0.06538
C11	N56	0.05488
C12	C18	0.06023
C13	C14	0.06154
C13	C21	0.05747
C13	N6	0.05518
C14	H6	0.04372
C14	N4	0.05659
C15	H8	0.04388
C15	N2	0.06200
C16	H2	0.04410
C16	N3	0.06181
C17	H9	0.04960
C17	N2	0.05392
C18	H10	0.05006
C18	N3	0.05490
C19	C20	0.06020
C19	H11	0.04627
C19	N4	0.05440
C20	C21	0.05906
C20	H4	0.04347
C21	C23	0.06316
C22	O5	0.05811
C22	O8	0.05145
C22	C42	0.06269
C23	O2	0.05104
C23	O3	0.05734
C24	O4	0.05629
C24	O6	0.05168
C24	C47	0.06302
H12	N5	0.04092
H13	N5	0.04329
H14	N21	0.04321
H15	N24	0.04652
H16	N25	0.04382
H17	N6	0.04150
H18	N6	0.04361
N1	Ni1	0.09113
N2	Ni2	0.08727
N3	Ni1	0.08760
N4	Ni2	0.08923
Ni1	O1	0.08168
Ni1	O2	0.09083
Ni1	O3	0.08239
Ni1	O7	0.09201
Ni2	O4	0.08233
Ni2	O5	0.08211
Ni2	O6	0.09075
Ni2	O8	0.09106
O6	H40	0.08597
C25	C31	0.06147
C25	C73	0.05731
C25	N31	0.05768
C27	C33	0.06011
C27	H27	0.04358
C27	C73	0.06078
C28	C34	0.05996
C28	N11	0.05391
C29	C30	0.06183
C29	C37	0.05709
C29	N12	0.05836
C30	H19	0.04360
C30	N9	0.05908
C31	H21	0.04356
C31	N7	0.05887
C32	H29	0.04343
C32	C122	0.06011
C32	N40	0.05952
C33	H22	0.04788
C33	N7	0.05419
C34	H23	0.04718
C34	N8	0.05330
C35	C36	0.06063
C35	H24	0.04827
C35	N9	0.05427
C36	C37	0.06168
C37	C39	0.06333
C38	O11	0.05817
C38	O14	0.05194
C39	O9	0.05641
C40	O10	0.05648
C40	O12	0.05131
C41	C48	0.06290
C42	C82	0.05781
C42	C84	0.06399
C43	C47	0.05573
C43	H81	0.04717
C43	C140	0.06033
C44	H20	0.04340
C45	C46	0.06035
C45	H30	0.04687
C45	N10	0.05324
C46	C47	0.06273
C46	N16	0.05379
C48	O15	0.05722
C48	O45	0.05197
H28	C84	0.04420
H31	C132	0.04361
H32	N11	0.04675
H33	N12	0.04069
H34	N12	0.04379
H35	N13	0.04069
H36	N13	0.04383
H37	N14	0.04320
H38	N15	0.04101
H39	N16	0.04557
H40	N16	0.04365
N7	Ni3	0.08945
N8	Ni4	0.08734
N9	Ni3	0.08798
N10	C140	0.05936
N10	Ni12	0.08846
Ni3	O10	0.08298
Ni3	O11	0.08240
Ni3	O12	0.08960
Ni3	O14	0.09000
Ni4	O9	0.08545
Ni4	O13	0.09191
O15	Ni12	0.08330
O16	C135	0.05142
O16	Ni12	0.09044
C49	C55	0.06147
C51	C57	0.06011
C51	H49	0.04358
C52	C58	0.05996
C52	N21	0.05391
C53	C54	0.06183
C53	C61	0.05709
C53	N22	0.05836
C54	H41	0.04360
C54	N19	0.05908
C55	H43	0.04356
C55	N17	0.05887
C56	H51	0.04343
C56	C146	0.06011
C56	N50	0.05952
C57	H44	0.04788
C57	N17	0.05419
C58	H45	0.04718
C58	N18	0.05330
C59	C60	0.06063
C59	H46	0.04827
C59	N19	0.05427
C60	C61	0.06168
C61	C63	0.06333
C62	O19	0.05817
C62	O22	0.05194
C62	C74	0.06232
C63	O17	0.05641
C64	O18	0.05648
C64	O20	0.05131
C64	C79	0.06241
C65	C72	0.06290
C67	C71	0.05573
C67	C164	0.06033
C68	H42	0.04340
C69	C70	0.06035
C69	H52	0.04687
C69	N20	0.05324
C70	C71	0.06273
C70	N26	0.05379
C72	O23	0.05722
C72	O53	0.05197
H53	C156	0.04361
H54	N21	0.04675
H55	N22	0.04069
H56	N22	0.04379
H57	N23	0.04069
H58	N23	0.04383
H59	N24	0.04320
H60	N25	0.04101
H61	N26	0.04557
H62	N26	0.04365
N17	Ni5	0.08945
N18	Ni6	0.08734
N19	Ni5	0.08798
N20	C164	0.05936
N20	Ni14	0.08846
N23	C75	0.05812
N25	C82	0.06086
Ni5	O18	0.08298
Ni5	O19	0.08240
Ni5	O20	0.08960
Ni5	O22	0.09000
Ni6	O17	0.08545
Ni6	O21	0.09191
O22	H76	0.08301
O23	Ni14	0.08330
O24	C159	0.05142
O24	Ni14	0.09044
C73	C80	0.06237
C75	C76	0.06178
C75	C79	0.05719
C76	H69	0.04357
C76	N27	0.05884
C77	C78	0.06009
C77	H65	0.04734
C77	N27	0.05417
C78	C79	0.06062
C78	H67	0.04349
C80	O25	0.05890
C80	O31	0.05132
C81	C87	0.05990
C82	C88	0.06131
C83	C89	0.06037
C84	C90	0.06023
C85	C86	0.06154
C85	C93	0.05747
C85	N32	0.05518
C86	H68	0.04372
C86	N30	0.05659
C87	H70	0.04388
C87	N28	0.06200
C88	H64	0.04410
C88	N29	0.06181
C89	H71	0.04960
C89	N28	0.05392
C90	H72	0.05006
C90	N29	0.05490
C91	C92	0.06020
C91	H73	0.04627
C91	N30	0.05440
C92	C93	0.05906
C92	H66	0.04347
C93	C95	0.06316
C94	O29	0.05811
C94	O32	0.05145
C95	O26	0.05104
C95	O27	0.05734
C96	O28	0.05629
C96	O30	0.05168
H74	N31	0.04092
H75	N31	0.04329
H79	N32	0.04150
H80	N32	0.04361
N27	Ni7	0.09113
N28	Ni8	0.08727
N29	Ni7	0.08760
N30	Ni8	0.08923
Ni7	O25	0.08168
Ni7	O26	0.09083
Ni7	O27	0.08239
Ni7	O31	0.09201
Ni8	O28	0.08233
Ni8	O29	0.08211
Ni8	O30	0.09075
Ni8	O32	0.09106
C97	C104	0.06237
C98	C146	0.05583
C98	C148	0.06286
C99	C100	0.06178
C99	C103	0.05719
C100	H87	0.04357
C100	N33	0.05884
C101	C102	0.06009
C101	H83	0.04734
C101	N33	0.05417
C102	C103	0.06062
C102	H85	0.04349
C104	O33	0.05890
C104	O39	0.05132
C105	C111	0.05990
C105	C161	0.05634
C105	H127	0.04929
C106	C112	0.06131
C107	C113	0.06037
C107	C161	0.06538
C108	C114	0.06023
C109	C110	0.06154
C109	C117	0.05747
C109	N38	0.05518
C110	H86	0.04372
C110	N36	0.05659
C111	H88	0.04388
C111	N34	0.06200
C112	H82	0.04410
C112	N35	0.06181
C113	H89	0.04960
C113	N34	0.05392
C114	H90	0.05006
C114	N35	0.05490
C115	C116	0.06020
C115	H91	0.04627
C115	N36	0.05440
C116	C117	0.05906
C116	H84	0.04347
C117	C119	0.06316
C118	O37	0.05811
C118	O40	0.05145
C118	C138	0.06269
C119	O34	0.05104
C119	O35	0.05734
C120	O36	0.05629
C120	O38	0.05168
C120	C143	0.06302
H92	N37	0.04092
H93	N37	0.04329
H94	N53	0.04321
H95	N56	0.04652
H96	N57	0.04382
H97	N38	0.04150
H98	N38	0.04361
N33	Ni9	0.09113
N34	Ni10	0.08727
N35	Ni9	0.08760
N36	Ni10	0.08923
Ni9	O33	0.08168
Ni9	O34	0.09083
Ni9	O35	0.08239
Ni9	O39	0.09201
Ni10	O36	0.08233
Ni10	O37	0.08211
Ni10	O38	0.09075
Ni10	O40	0.09106
O38	H120	0.08597
C121	C127	0.06147
C121	C169	0.05731
C121	N63	0.05768
C123	C129	0.06011
C123	H107	0.04358
C123	C169	0.06078
C124	C130	0.05996
C124	N43	0.05391
C125	C126	0.06183
C125	C133	0.05709
C125	N44	0.05836
C126	H99	0.04360
C126	N41	0.05908
C127	H101	0.04356
C127	N39	0.05887
C128	H109	0.04343
C129	H102	0.04788
C129	N39	0.05419
C130	H103	0.04718
C130	N40	0.05330
C131	C132	0.06063
C131	H104	0.04827
C131	N41	0.05427
C132	C133	0.06168
C133	C135	0.06333
C134	O43	0.05817
C134	O46	0.05194
C135	O41	0.05641
C136	O42	0.05648
C136	O44	0.05131
C137	C144	0.06290
C138	C178	0.05781
C138	C180	0.06399
C139	C143	0.05573
C140	H100	0.04340
C141	C142	0.06035
C141	H110	0.04687
C141	N42	0.05324
C142	C143	0.06273
C142	N48	0.05379
C144	O47	0.05722
H108	C180	0.04420
H112	N43	0.04675
H113	N44	0.04069
H114	N44	0.04379
H115	N45	0.04069
H116	N45	0.04383
H117	N46	0.04320
H118	N47	0.04101
H119	N48	0.04557
H120	N48	0.04365
N39	Ni11	0.08945
N40	Ni12	0.08734
N41	Ni11	0.08798
Ni11	O42	0.08298
Ni11	O43	0.08240
Ni11	O44	0.08960
Ni11	O46	0.09000
Ni12	O41	0.08545
Ni12	O45	0.09191
C145	C151	0.06147
C147	C153	0.06011
C147	H129	0.04358
C148	C154	0.05996
C148	N53	0.05391
C149	C150	0.06183
C149	C157	0.05709
C149	N54	0.05836
C150	H121	0.04360
C150	N51	0.05908
C151	H123	0.04356
C151	N49	0.05887
C152	H131	0.04343
C153	H124	0.04788
C153	N49	0.05419
C154	H125	0.04718
C154	N50	0.05330
C155	C156	0.06063
C155	H126	0.04827
C155	N51	0.05427
C156	C157	0.06168
C157	C159	0.06333
C158	O51	0.05817
C158	O54	0.05194
C158	C170	0.06232
C159	O49	0.05641
C160	O50	0.05648
C160	O52	0.05131
C160	C175	0.06241
C161	C168	0.06290
C163	C167	0.05573
C164	H122	0.04340
C165	C166	0.06035
C165	H132	0.04687
C165	N52	0.05324
C166	C167	0.06273
C166	N58	0.05379
C168	O55	0.05722
H134	N53	0.04675
H135	N54	0.04069
H136	N54	0.04379
H137	N55	0.04069
H138	N55	0.04383
H139	N56	0.04320
H140	N57	0.04101
H141	N58	0.04557
H142	N58	0.04365
N49	Ni13	0.08945
N50	Ni14	0.08734
N51	Ni13	0.08798
N55	C171	0.05812
N57	C178	0.06086
Ni13	O50	0.08298
Ni13	O51	0.08240
Ni13	O52	0.08960
Ni13	O54	0.09000
Ni14	O49	0.08545
Ni14	O53	0.09191
O54	H156	0.08301
C169	C176	0.06237
C171	C172	0.06178
C171	C175	0.05719
C172	H149	0.04357
C172	N59	0.05884
C173	C174	0.06009
C173	H145	0.04734
C173	N59	0.05417
C174	C175	0.06062
C174	H147	0.04349
C176	O57	0.05890
C176	O63	0.05132
C177	C183	0.05990
C178	C184	0.06131
C179	C185	0.06037
C180	C186	0.06023
C181	C182	0.06154
C181	C189	0.05747
C181	N64	0.05518
C182	H148	0.04372
C182	N62	0.05659
C183	H150	0.04388
C183	N60	0.06200
C184	H144	0.04410
C184	N61	0.06181
C185	H151	0.04960
C185	N60	0.05392
C186	H152	0.05006
C186	N61	0.05490
C187	C188	0.06020
C187	H153	0.04627
C187	N62	0.05440
C188	C189	0.05906
C188	H146	0.04347
C189	C191	0.06316
C190	O61	0.05811
C190	O64	0.05145
C191	O58	0.05104
C191	O59	0.05734
C192	O60	0.05629
C192	O62	0.05168
H154	N63	0.04092
H155	N63	0.04329
H159	N64	0.04150
H160	N64	0.04361
N59	Ni15	0.09113
N60	Ni16	0.08727
N61	Ni15	0.08760
N62	Ni16	0.08923
Ni15	O57	0.08168
Ni15	O58	0.09083
Ni15	O59	0.08239
Ni15	O63	0.09201
Ni16	O60	0.08233
Ni16	O61	0.08211
Ni16	O62	0.09075
Ni16	O64	0.09106
