data_NiPyC2_vc-relax_NiPyC2_vc-relax_aligned_CH2-CH2-CH3_NiPyC2_vc-relax_aligned_CH2-CH2-CH3_NiPyC2_vc-relax_aligned_CH2-CH2-CH3_NiPyC2_vc-relax_aligned_CH2-CH2-CH3_NiPyC2_vc-relax_aligned_CH2-CH2-CH3_NiPyC2_vc-relax_aligned_CH2-CH2-CH3_NiPyC2_vc-relax_aligned_CH2-CH2-CH3_NiPyC2_vc-relax_aligned_CH2-CH2-CH3_PM
_symmetry_space_group_name_H-M	'P1'
_cell_length_a	13.596920
_cell_length_b	10.761410
_cell_length_c	11.188340
_cell_angle_alpha	90.000000
_cell_angle_beta	91.370820
_cell_angle_gamma	90.000000
_symmetry_Int_Tables_number 1

loop_
_symmetry_equiv_pos_as_xyz
'x,y,z'

loop_
_atom_site_label
_atom_site_type_symbol
_atom_site_fract_x
_atom_site_fract_y
_atom_site_fract_z
Ni1	Ni	0.247197	0.753640	0.835964
Ni2	Ni	0.000319	0.245480	0.339573
O1	O	0.111597	0.356377	0.377951
O2	O	0.362148	0.643663	0.875199
O3	O	0.387594	0.132093	0.366528
O4	O	0.135269	0.866605	0.868183
O5	O	0.471199	0.368506	0.466691
O6	O	0.222521	0.628961	0.964342
O7	O	0.027495	0.115997	0.463143
O8	O	0.276884	0.882169	0.960933
N1	N	0.304670	0.859220	0.713966
N2	N	0.058019	0.140503	0.216709
N3	N	0.190138	0.644396	0.716223
N4	N	0.443186	0.356492	0.217779
C1	C	0.291060	0.975012	0.532636
C2	C	0.042181	0.024694	0.035506
H1	H	0.245183	0.011831	0.460177
H2	H	0.495337	0.988400	0.963693
C3	C	0.392226	0.999467	0.540557
C4	C	0.143313	0.999720	0.041690
C5	C	0.449200	0.952237	0.635756
C6	C	0.201469	0.047233	0.135744
H3	H	0.027666	0.970603	0.644986
H4	H	0.280056	0.029159	0.143552
C7	C	0.203970	0.520841	0.541178
C8	C	0.457280	0.480360	0.042147
H5	H	0.249067	0.482258	0.471539
H6	H	0.003156	0.518378	0.972910
C9	C	0.245670	0.597932	0.628523
C10	C	0.498677	0.403347	0.130221
C11	C	0.249081	0.903609	0.622156
C12	C	0.001383	0.096050	0.125873
H7	H	0.170825	0.881421	0.622089
C13	C	0.402384	0.881084	0.721817
C14	C	0.155764	0.118649	0.222607
H8	H	0.196516	0.159347	0.297836
C15	C	0.093038	0.619955	0.721873
C16	C	0.346073	0.381359	0.222307
H9	H	0.053780	0.663137	0.794694
C17	C	0.046657	0.542831	0.637737
C18	C	0.299918	0.458270	0.137501
H10	H	0.468696	0.522384	0.644679
H11	H	0.221822	0.478144	0.143880
C19	C	0.103706	0.492992	0.547307
C20	C	0.356836	0.508112	0.046801
C21	C	0.436987	0.081917	0.453858
C22	C	0.186461	0.916651	0.954182
C23	C	0.060730	0.405840	0.461679
C24	C	0.312713	0.593879	0.959708
Ni3	Ni	0.747197	0.753640	0.835964
Ni4	Ni	0.500319	0.245480	0.339573
O9	O	0.611596	0.356377	0.377951
O10	O	0.862148	0.643663	0.875199
O11	O	0.887594	0.132093	0.366528
O12	O	0.635269	0.866605	0.868183
O13	O	0.971199	0.368506	0.466691
O14	O	0.722521	0.628961	0.964342
O15	O	0.527496	0.115997	0.463143
O16	O	0.776884	0.882169	0.960933
N5	N	0.804670	0.859220	0.713966
N6	N	0.558018	0.140503	0.216709
N7	N	0.690138	0.644396	0.716223
N8	N	0.943186	0.356492	0.217779
C25	C	0.791060	0.975012	0.532636
C26	C	0.542181	0.024694	0.035506
H12	H	0.745183	0.011831	0.460177
H13	H	0.995337	0.988400	0.963693
C27	C	0.892226	0.999467	0.540557
C28	C	0.643312	0.999720	0.041690
C29	C	0.949200	0.952237	0.635756
C30	C	0.701469	0.047233	0.135744
H14	H	0.527666	0.970603	0.644986
H15	H	0.780056	0.029159	0.143552
C31	C	0.703971	0.520841	0.541178
C32	C	0.957280	0.480360	0.042147
H16	H	0.749067	0.482258	0.471539
H17	H	0.503156	0.518378	0.972910
C33	C	0.745670	0.597932	0.628523
C34	C	0.998677	0.403347	0.130221
H18	H	0.576408	0.378457	0.132091
C35	C	0.749081	0.903609	0.622156
C36	C	0.501382	0.096050	0.125873
C37	C	0.902384	0.881084	0.721817
C38	C	0.655764	0.118649	0.222607
H19	H	0.942056	0.840512	0.797913
H20	H	0.696516	0.159347	0.297836
C39	C	0.593038	0.619955	0.721873
C40	C	0.846073	0.381359	0.222307
H21	H	0.553780	0.663137	0.794694
H22	H	0.806280	0.338513	0.294844
C41	C	0.546658	0.542831	0.637737
C42	C	0.799918	0.458270	0.137501
H23	H	0.968696	0.522384	0.644679
H24	H	0.721822	0.478144	0.143880
C43	C	0.603706	0.492992	0.547307
C44	C	0.856836	0.508112	0.046801
C45	C	0.936987	0.081917	0.453858
C46	C	0.686461	0.916651	0.954182
C47	C	0.560730	0.405840	0.461679
C48	C	0.812713	0.593879	0.959708
C49	C	0.464679	0.826208	0.828688
C50	C	0.407944	0.748835	0.919869
H25	H	0.522429	0.765144	0.791619
H26	H	0.499825	0.904706	0.878184
C51	C	0.476526	0.700616	1.019472
H27	H	0.350332	0.807138	0.960986
H28	H	0.372921	0.667666	0.874474
H29	H	0.511929	0.779392	1.068120
H30	H	0.433707	0.645224	1.083842
H31	H	0.534452	0.640333	0.981863
C52	C	-0.111427	0.124275	0.120921
C53	C	-0.150807	0.203506	0.223748
H32	H	-0.128750	0.174564	0.036209
H33	H	-0.151608	0.034314	0.121640
C54	C	-0.261468	0.224576	0.208917
H34	H	-0.136618	0.155464	0.310433
H35	H	-0.113774	0.295625	0.225055
H36	H	-0.301198	0.134372	0.208911
H37	H	-0.287836	0.281898	0.284204
H38	H	-0.278421	0.274118	0.123785
C55	C	0.357444	0.630310	0.624241
C56	C	0.397618	0.716023	0.724039
H39	H	0.371217	0.677032	0.537611
H40	H	0.399880	0.542103	0.629690
C57	C	0.507324	0.740675	0.710085
H41	H	0.386976	0.671766	0.812589
H42	H	0.358330	0.806608	0.720568
H43	H	0.549295	0.652173	0.714814
H44	H	0.534291	0.802648	0.783145
H45	H	0.520734	0.786616	0.623064
C58	C	0.283508	0.323527	0.323887
C59	C	0.339387	0.239857	0.413949
H46	H	0.250475	0.400722	0.375369
H47	H	0.224141	0.266364	0.281561
C60	C	0.270666	0.189240	0.508284
H48	H	0.372277	0.159798	0.366439
H49	H	0.398594	0.294072	0.460186
H50	H	0.211135	0.132885	0.465448
H51	H	0.312865	0.129307	0.571951
H52	H	0.237374	0.266763	0.558917
C61	C	0.636362	0.875308	0.615105
C62	C	0.595715	0.796027	0.717138
H53	H	0.620127	0.825022	0.530104
H54	H	0.596118	0.965238	0.615090
C63	C	0.485224	0.774873	0.700252
H55	H	0.608793	0.844062	0.804052
H56	H	0.632787	0.703936	0.719119
H57	H	0.445441	0.865045	0.699521
H58	H	0.457930	0.717515	0.775003
H59	H	0.469364	0.725334	0.614838
C64	C	0.388573	0.124272	0.120923
C65	C	0.349191	0.203498	0.223753
H60	H	0.348393	0.034310	0.121640
H61	H	0.371249	0.174563	0.036212
C66	C	0.238530	0.224565	0.208924
H62	H	0.386223	0.295619	0.225063
H63	H	0.363383	0.155454	0.310435
H64	H	0.221575	0.274111	0.123794
H65	H	0.212161	0.281882	0.284214
H66	H	0.198803	0.134359	0.208914
C67	C	0.857444	0.630310	0.624241
C68	C	0.897618	0.716023	0.724039
H67	H	0.871217	0.677032	0.537611
H68	H	0.899880	0.542103	0.629690
C69	C	1.007324	0.740675	0.710085
H69	H	0.886976	0.671766	0.812589
H70	H	0.858330	0.806608	0.720568
H71	H	1.049295	0.652173	0.714814
H72	H	1.034291	0.802648	0.783145
H73	H	1.020734	0.786616	0.623064
C70	C	1.110744	0.371595	0.126531
C71	C	1.150823	0.286205	0.226642
H74	H	1.152858	0.460038	0.132133
H75	H	1.125019	0.324861	0.040042
C72	C	1.260679	0.262140	0.213354
H76	H	1.111857	0.195402	0.223039
H77	H	1.139678	0.330495	0.315071
H78	H	1.274592	0.216182	0.126471
H79	H	1.287574	0.200391	0.286628
H80	H	1.302330	0.350876	0.218230

loop_
_geom_bond_atom_site_label_1
_geom_bond_atom_site_label_2
_geom_bond_distance
Ni1	O2	0.16385
Ni1	O4	0.16226
Ni1	O6	0.18065
Ni1	O8	0.18171
Ni1	N1	0.17127
Ni1	N3	0.17184
Ni2	O1	0.16172
Ni2	O7	0.18104
Ni2	N2	0.17160
Ni2	O11	0.16214
Ni2	O13	0.17928
Ni2	N8	0.17442
O1	C23	0.10975
O2	C24	0.10984
O3	C21	0.11218
O3	Ni4	0.16214
O4	C22	0.11190
O5	Ni4	0.17928
O5	C47	0.09713
O6	C24	0.09689
O7	C45	0.09716
O8	C22	0.09701
N1	C11	0.11614
N1	C13	0.10044
N2	C12	0.11591
N2	C14	0.10033
N3	C9	0.11373
N3	C15	0.10029
N4	C10	0.11376
N4	C16	0.10035
N4	Ni4	0.17442
C1	H1	0.09333
C1	C3	0.10438
C1	C11	0.12196
C2	C4	0.10435
C2	C12	0.12216
C2	H13	0.09311
H2	C26	0.09311
C3	C5	0.12058
C3	C21	0.12774
C4	C6	0.12036
C4	C22	0.12814
C5	C13	0.12108
C5	H14	0.08111
C6	H4	0.08102
C6	C14	0.12139
H3	C29	0.08111
C7	H5	0.09150
C7	C9	0.12374
C7	C19	0.10424
C8	C10	0.12410
C8	C20	0.10431
C8	H17	0.09134
H6	C32	0.09134
C9	C55	0.11645
C10	H18	0.08164
C11	H7	0.08134
C12	C52	0.11639
C13	C49	0.13533
C14	H8	0.09474
C15	H9	0.09332
C15	C17	0.12320
C16	C18	0.12344
C16	C58	0.13258
C17	C19	0.11797
C17	H23	0.08090
C18	H11	0.08084
C18	C20	0.11811
H10	C41	0.08090
C19	C23	0.12952
C20	C24	0.12995
C21	O15	0.09716
C23	O13	0.09713
Ni3	O10	0.16385
Ni3	O12	0.16226
Ni3	O14	0.18065
Ni3	O16	0.18171
Ni3	N5	0.17127
Ni3	N7	0.17184
Ni4	O9	0.16172
Ni4	O15	0.18104
Ni4	N6	0.17160
O9	C47	0.10975
O10	C48	0.10984
O11	C45	0.11218
O12	C46	0.11190
O14	C48	0.09689
O16	C46	0.09701
N5	C35	0.11614
N5	C37	0.10044
N6	C36	0.11591
N6	C38	0.10033
N7	C33	0.11373
N7	C39	0.10029
N8	C34	0.11376
N8	C40	0.10035
C25	H12	0.09333
C25	C27	0.10438
C25	C35	0.12196
C26	C28	0.10435
C26	C36	0.12216
C27	C29	0.12058
C27	C45	0.12774
C28	C30	0.12036
C28	C46	0.12814
C29	C37	0.12108
C30	H15	0.08102
C30	C38	0.12139
C31	H16	0.09150
C31	C33	0.12374
C31	C43	0.10424
C32	C34	0.12410
C32	C44	0.10431
C33	C67	0.11645
C34	C70	0.11654
C35	C61	0.11643
C36	C64	0.11639
C37	H19	0.09492
C38	H20	0.09474
C39	H21	0.09332
C39	C41	0.12320
C40	H22	0.09317
C40	C42	0.12344
C41	C43	0.11797
C42	H24	0.08084
C42	C44	0.11811
C43	C47	0.12952
C44	C48	0.12995
C49	C50	0.13236
C49	H25	0.09186
C49	H26	0.09923
C50	C51	0.13019
C50	H27	0.09170
C50	H28	0.09938
C51	H29	0.09912
C51	H30	0.09511
C51	H31	0.09167
C52	C53	0.13565
C52	H32	0.10003
C52	H33	0.09853
C53	C54	0.11362
C53	H34	0.10012
C53	H35	0.09929
C54	H36	0.09857
C54	H37	0.09823
C54	H38	0.09995
C55	C56	0.13755
C55	H39	0.09938
C55	H40	0.09803
C56	C57	0.11330
C56	H41	0.09956
C56	H42	0.09880
C57	H43	0.09806
C57	H44	0.09953
C57	H45	0.09931
C58	C59	0.13503
C58	H46	0.09849
C58	H47	0.09265
C59	C60	0.12722
C59	H48	0.09873
C59	H49	0.09264
C60	H50	0.09249
C60	H51	0.09709
C60	H52	0.09840
C61	C62	0.13546
C61	H53	0.10009
C61	H54	0.09852
C62	C63	0.11376
C62	H55	0.10016
C62	H56	0.09929
C63	H57	0.09856
C63	H58	0.09809
C63	H59	0.10001
C64	C65	0.13565
C64	H60	0.09853
C64	H61	0.10003
C65	C66	0.11362
C65	H62	0.09929
C65	H63	0.10012
C66	H64	0.09995
C66	H65	0.09823
C66	H66	0.09857
C67	C68	0.13755
C67	H67	0.09938
C67	H68	0.09803
C68	C69	0.11330
C68	H69	0.09956
C68	H70	0.09880
C69	H71	0.09806
C69	H72	0.09953
C69	H73	0.09931
C70	C71	0.13755
C70	H74	0.09812
C70	H75	0.09934
C71	C72	0.11324
C71	H76	0.09888
C71	H77	0.09953
C72	H78	0.09927
C72	H79	0.09953
C72	H80	0.09815
