data_NiPyC2_vc-relax_NiPyC2_vc-relax_aligned_CH2-CH2-CH3_NiPyC2_vc-relax_aligned_CH2-CH2-CH3_NiPyC2_vc-relax_aligned_CH2-CH2-CH3_NiPyC2_vc-relax_aligned_CH2-CH2-CH3_NiPyC2_vc-relax_aligned_CH2-CH2-CH3_NiPyC2_vc-relax_aligned_CH2-CH2-CH3_NiPyC2_vc-relax_aligned_CH2-CH2-CH3_NiPyC2_vc-relax_aligned_CH2-CH2-CH3_PM
_symmetry_space_group_name_H-M	'P1'
_cell_length_a	13.596920
_cell_length_b	10.761410
_cell_length_c	11.188340
_cell_angle_alpha	90.000000
_cell_angle_beta	91.370820
_cell_angle_gamma	90.000000
_symmetry_Int_Tables_number 1

loop_
_symmetry_equiv_pos_as_xyz
'x,y,z'

loop_
_atom_site_label
_atom_site_type_symbol
_atom_site_fract_x
_atom_site_fract_y
_atom_site_fract_z
Ni1	Ni	0.247197	0.753640	0.835964
Ni2	Ni	0.000319	0.245480	0.339573
O1	O	0.111597	0.356377	0.377951
O2	O	0.362148	0.643663	0.875199
O3	O	0.387594	0.132093	0.366528
O4	O	0.135269	0.866605	0.868183
O5	O	0.471199	0.368506	0.466691
O6	O	0.222521	0.628961	0.964342
O7	O	0.027495	0.115997	0.463143
O8	O	0.276884	0.882169	0.960933
N1	N	0.304670	0.859220	0.713966
N2	N	0.058019	0.140503	0.216709
N3	N	0.190138	0.644396	0.716223
N4	N	0.443186	0.356492	0.217779
C1	C	0.291060	0.975012	0.532636
C2	C	0.042181	0.024694	0.035506
H1	H	0.245183	0.011831	0.460177
C3	C	0.392226	0.999467	0.540557
C4	C	0.143313	0.999720	0.041690
C5	C	0.449200	0.952237	0.635756
C6	C	0.201469	0.047233	0.135744
H2	H	0.027666	0.970603	0.644986
C7	C	0.203970	0.520841	0.541178
C8	C	0.457280	0.480360	0.042147
C9	C	0.245670	0.597932	0.628523
C10	C	0.498677	0.403347	0.130221
H3	H	0.323324	0.623149	0.630133
H4	H	0.076408	0.378457	0.132091
C11	C	0.249081	0.903609	0.622156
C12	C	0.001383	0.096050	0.125873
H5	H	0.170825	0.881421	0.622089
H6	H	0.423215	0.118160	0.127295
C13	C	0.402384	0.881084	0.721817
C14	C	0.155764	0.118649	0.222607
H7	H	0.442056	0.840512	0.797913
H8	H	0.196516	0.159347	0.297836
C15	C	0.093038	0.619955	0.721873
C16	C	0.346073	0.381359	0.222307
H9	H	0.053780	0.663137	0.794694
H10	H	0.306279	0.338513	0.294844
C17	C	0.046657	0.542831	0.637737
C18	C	0.299918	0.458270	0.137501
H11	H	0.221822	0.478144	0.143880
C19	C	0.103706	0.492992	0.547307
C20	C	0.356836	0.508112	0.046801
C21	C	0.436987	0.081917	0.453858
C22	C	0.186461	0.916651	0.954182
C23	C	0.060730	0.405840	0.461679
C24	C	0.312713	0.593879	0.959708
Ni3	Ni	0.747197	0.753640	0.835964
Ni4	Ni	0.500319	0.245480	0.339573
O9	O	0.611596	0.356377	0.377951
O10	O	0.862148	0.643663	0.875199
O11	O	0.887594	0.132093	0.366528
O12	O	0.635269	0.866605	0.868183
O13	O	0.971199	0.368506	0.466691
O14	O	0.722521	0.628961	0.964342
O15	O	0.527496	0.115997	0.463143
O16	O	0.776884	0.882169	0.960933
N5	N	0.804670	0.859220	0.713966
N6	N	0.558018	0.140503	0.216709
N7	N	0.690138	0.644396	0.716223
N8	N	0.943186	0.356492	0.217779
C25	C	0.791060	0.975012	0.532636
C26	C	0.542181	0.024694	0.035506
H12	H	0.995337	0.988400	0.963693
C27	C	0.892226	0.999467	0.540557
C28	C	0.643312	0.999720	0.041690
C29	C	0.949200	0.952237	0.635756
C30	C	0.701469	0.047233	0.135744
H13	H	0.780056	0.029159	0.143552
C31	C	0.703971	0.520841	0.541178
C32	C	0.957280	0.480360	0.042147
H14	H	0.749067	0.482258	0.471539
C33	C	0.745670	0.597932	0.628523
C34	C	0.998677	0.403347	0.130221
H15	H	0.823324	0.623149	0.630133
H16	H	0.576408	0.378457	0.132091
C35	C	0.749081	0.903609	0.622156
C36	C	0.501382	0.096050	0.125873
H17	H	0.670825	0.881421	0.622089
H18	H	0.923215	0.118160	0.127295
C37	C	0.902384	0.881084	0.721817
C38	C	0.655764	0.118649	0.222607
H19	H	0.942056	0.840512	0.797913
H20	H	0.696516	0.159347	0.297836
C39	C	0.593038	0.619955	0.721873
C40	C	0.846073	0.381359	0.222307
H21	H	0.553780	0.663137	0.794694
H22	H	0.806280	0.338513	0.294844
C41	C	0.546658	0.542831	0.637737
C42	C	0.799918	0.458270	0.137501
H23	H	0.968696	0.522384	0.644679
H24	H	0.721822	0.478144	0.143880
C43	C	0.603706	0.492992	0.547307
C44	C	0.856836	0.508112	0.046801
C45	C	0.936987	0.081917	0.453858
C46	C	0.686461	0.916651	0.954182
C47	C	0.560730	0.405840	0.461679
C48	C	0.812713	0.593879	0.959708
C49	C	0.560317	0.977278	0.646389
C50	C	0.615204	0.920413	0.755076
H25	H	0.594922	0.939822	0.564883
H26	H	0.571277	1.079569	0.650733
C51	C	0.724574	0.952467	0.754473
H27	H	0.584068	0.957206	0.838975
H28	H	0.607696	0.817547	0.753179
H29	H	0.735079	1.054785	0.758035
H30	H	0.762275	0.910326	0.833731
H31	H	0.758637	0.915540	0.672491
C52	C	0.312673	0.022254	0.144348
C53	C	0.368915	0.079420	0.251882
H32	H	0.346207	0.059503	0.062074
H33	H	0.323706	-0.080023	0.148736
C54	C	0.478230	0.047388	0.249285
H34	H	0.338880	0.042842	0.336483
H35	H	0.361364	0.182278	0.249875
H36	H	0.488798	-0.054918	0.252899
H37	H	0.516921	0.089748	0.327744
H38	H	0.511216	0.084106	0.166546
C55	C	0.267140	0.468105	0.440871
C56	C	0.376460	0.505098	0.443280
H39	H	0.234794	0.499987	0.353970
H40	H	0.263854	0.365012	0.445812
C57	C	0.430320	0.446579	0.339153
H41	H	0.412344	0.472893	0.528079
H42	H	0.383300	0.607782	0.436296
H43	H	0.426260	0.343610	0.344088
H44	H	0.508885	0.474792	0.343116
H45	H	0.397301	0.478100	0.252576
C58	C	0.521319	0.533073	-0.057439
C59	C	0.630698	0.496358	-0.053589
H46	H	0.517827	0.636165	-0.052708
H47	H	0.489760	0.500963	-0.144668
C60	C	0.685366	0.554837	-0.157100
H48	H	0.637764	0.393680	-0.060317
H49	H	0.665812	0.528797	0.031585
H50	H	0.653134	0.523085	-0.244017
H51	H	0.763958	0.526828	-0.152099
H52	H	0.681098	0.657803	-0.152386
C61	C	0.727156	1.025226	0.428147
C62	C	0.617034	0.992477	0.428805
H53	H	0.757052	0.988046	0.343719
H54	H	0.732949	1.128274	0.428644
C63	C	0.562514	1.047954	0.320513
H55	H	0.583567	1.030012	0.511010
H56	H	0.607657	0.889872	0.426140
H57	H	0.569078	1.150850	0.321032
H58	H	0.483378	1.022900	0.323287
H59	H	0.593097	1.011125	0.236412
C64	C	0.476996	-0.024960	-0.068118
C65	C	0.367025	0.008302	-0.065598
H60	H	0.506067	0.012300	-0.152959
H61	H	0.482482	-0.128036	-0.067968
C66	C	0.311176	-0.046637	-0.173168
H62	H	0.334360	-0.029290	0.017076
H63	H	0.357931	0.110957	-0.067860
H64	H	0.317433	-0.149564	-0.173007
H65	H	0.232178	-0.021221	-0.169051
H66	H	0.340935	-0.009732	-0.257693
C67	C	0.436356	0.514321	0.645240
C68	C	0.381480	0.574727	0.748936
H67	H	0.427770	0.412021	0.654101
H68	H	0.399938	0.546205	0.560661
C69	C	0.272849	0.538673	0.745637
H69	H	0.386629	0.677601	0.742359
H70	H	0.414444	0.543502	0.835739
H71	H	0.236978	0.570025	0.660630
H72	H	0.235141	0.583479	0.821314
H73	H	0.264711	0.436322	0.753732
C70	C	1.021319	0.533073	-0.057439
C71	C	1.130698	0.496358	-0.053589
H74	H	1.017827	0.636165	-0.052708
H75	H	0.989760	0.500963	-0.144668
C72	C	1.185366	0.554837	-0.157100
H76	H	1.137764	0.393680	-0.060317
H77	H	1.165812	0.528797	0.031585
H78	H	1.153134	0.523085	-0.244017
H79	H	1.263958	0.526828	-0.152099
H80	H	1.181098	0.657803	-0.152386

loop_
_geom_bond_atom_site_label_1
_geom_bond_atom_site_label_2
_geom_bond_distance
Ni1	O2	0.16385
Ni1	O4	0.16226
Ni1	O6	0.18065
Ni1	O8	0.18171
Ni1	N1	0.17127
Ni1	N3	0.17184
Ni2	O1	0.16172
Ni2	O7	0.18104
Ni2	N2	0.17160
Ni2	O11	0.16214
Ni2	O13	0.17928
Ni2	N8	0.17442
O1	C23	0.10975
O2	C24	0.10984
O3	C21	0.11218
O3	Ni4	0.16214
O4	C22	0.11190
O5	Ni4	0.17928
O5	C47	0.09713
O6	C24	0.09689
O7	C45	0.09716
O8	C22	0.09701
N1	C11	0.11614
N1	C13	0.10044
N2	C12	0.11591
N2	C14	0.10033
N3	C9	0.11373
N3	C15	0.10029
N4	C10	0.11376
N4	C16	0.10035
N4	Ni4	0.17442
C1	H1	0.09333
C1	C3	0.10438
C1	C11	0.12196
C2	C4	0.10435
C2	C12	0.12216
C2	H12	0.09311
C3	C5	0.12058
C3	C21	0.12774
C4	C6	0.12036
C4	C22	0.12814
C5	C13	0.12108
C5	C49	0.11440
C6	C14	0.12139
C6	C52	0.11430
H2	C29	0.08111
C7	C9	0.12374
C7	C19	0.10424
C7	C55	0.12974
C8	C10	0.12410
C8	C20	0.10431
C8	C58	0.12960
C9	H3	0.08166
C10	H16	0.08164
H4	C34	0.08164
C11	H5	0.08134
C12	H18	0.08125
H6	C36	0.08125
C13	H7	0.09492
C14	H8	0.09474
C15	H9	0.09332
C15	C17	0.12320
C16	H10	0.09317
C16	C18	0.12344
C17	C19	0.11797
C17	H23	0.08090
C18	H11	0.08084
C18	C20	0.11811
C19	C23	0.12952
C20	C24	0.12995
C21	O15	0.09716
C23	O13	0.09713
Ni3	O10	0.16385
Ni3	O12	0.16226
Ni3	O14	0.18065
Ni3	O16	0.18171
Ni3	N5	0.17127
Ni3	N7	0.17184
Ni4	O9	0.16172
Ni4	O15	0.18104
Ni4	N6	0.17160
O9	C47	0.10975
O10	C48	0.10984
O11	C45	0.11218
O12	C46	0.11190
O14	C48	0.09689
O16	C46	0.09701
N5	C35	0.11614
N5	C37	0.10044
N6	C36	0.11591
N6	C38	0.10033
N7	C33	0.11373
N7	C39	0.10029
N8	C34	0.11376
N8	C40	0.10035
C25	C27	0.10438
C25	C35	0.12196
C25	C61	0.13237
C26	C28	0.10435
C26	C36	0.12216
C26	C64	0.13211
C27	C29	0.12058
C27	C45	0.12774
C28	C30	0.12036
C28	C46	0.12814
C29	C37	0.12108
C30	H13	0.08102
C30	C38	0.12139
C31	H14	0.09150
C31	C33	0.12374
C31	C43	0.10424
C32	C34	0.12410
C32	C44	0.10431
C32	C70	0.12960
C33	H15	0.08166
C35	H17	0.08134
C37	H19	0.09492
C38	H20	0.09474
C39	H21	0.09332
C39	C41	0.12320
C40	H22	0.09317
C40	C42	0.12344
C41	C43	0.11797
C41	C67	0.11417
C42	H24	0.08084
C42	C44	0.11811
C43	C47	0.12952
C44	C48	0.12995
C49	C50	0.13438
C49	H25	0.09614
C49	H26	0.10297
C50	C51	0.11397
C50	H27	0.09676
C50	H28	0.10316
C51	H29	0.10292
C51	H30	0.09736
C51	H31	0.09615
C52	C53	0.13414
C52	H32	0.09634
C52	H33	0.10296
C53	C54	0.11394
C53	H34	0.09694
C53	H35	0.10315
C54	H36	0.10291
C54	H37	0.09720
C54	H38	0.09634
C55	C56	0.11543
C55	H39	0.09805
C55	H40	0.10326
C56	C57	0.13103
C56	H41	0.09755
C56	H42	0.10315
C57	H43	0.10317
C57	H44	0.08357
C57	H45	0.09787
C58	C59	0.11544
C58	H46	0.10326
C58	H47	0.09816
C59	C60	0.13085
C59	H48	0.10314
C59	H49	0.09767
C60	H50	0.09799
C60	H51	0.08358
C60	H52	0.10316
C61	C62	0.11489
C61	H53	0.09698
C61	H54	0.10321
C62	C63	0.13333
C62	H55	0.09637
C62	H56	0.10307
C63	H57	0.10311
C63	H58	0.08305
C63	H59	0.09677
C64	C65	0.11492
C64	H60	0.09711
C64	H61	0.10322
C65	C66	0.13307
C65	H62	0.09651
C65	H63	0.10308
C66	H64	0.10312
C66	H65	0.08309
C66	H66	0.09691
C67	C68	0.13196
C67	H67	0.10304
C67	H68	0.09745
C68	C69	0.11451
C68	H69	0.10321
C68	H70	0.09796
C69	H71	0.09745
C69	H72	0.09569
C69	H73	0.10299
C70	C71	0.11544
C70	H74	0.10326
C70	H75	0.09816
C71	C72	0.13085
C71	H76	0.10314
C71	H77	0.09767
C72	H78	0.09799
C72	H79	0.08358
C72	H80	0.10316
