data_NiPyC2_vc-relax_NiPyC2_vc-relax_aligned_N-NH_NiPyC2_vc-relax_aligned_N-NH_NiPyC2_vc-relax_aligned_N-NH_NiPyC2_vc-relax_aligned_N-NH_NiPyC2_vc-relax_aligned_N-NH_NiPyC2_vc-relax_aligned_N-NH_NiPyC2_vc-relax_aligned_N-NH_NiPyC2_vc-relax_aligned_N-NH_PM
_symmetry_space_group_name_H-M	'P1'
_cell_length_a	13.596920
_cell_length_b	10.761410
_cell_length_c	11.188340
_cell_angle_alpha	90.000000
_cell_angle_beta	91.370820
_cell_angle_gamma	90.000000
_symmetry_Int_Tables_number 1

loop_
_symmetry_equiv_pos_as_xyz
'x,y,z'

loop_
_atom_site_label
_atom_site_type_symbol
_atom_site_fract_x
_atom_site_fract_y
_atom_site_fract_z
Ni1	Ni	0.247197	0.753640	0.835964
Ni2	Ni	0.000319	0.245480	0.339573
O1	O	0.111597	0.356377	0.377951
O2	O	0.362148	0.643663	0.875199
O3	O	0.387594	0.132093	0.366528
O4	O	0.135269	0.866605	0.868183
O5	O	0.471199	0.368506	0.466691
O6	O	0.222521	0.628961	0.964342
O7	O	0.027495	0.115997	0.463143
O8	O	0.276884	0.882169	0.960933
N1	N	0.304670	0.859220	0.713966
N2	N	0.058019	0.140503	0.216709
N3	N	0.190138	0.644396	0.716223
N4	N	0.443186	0.356492	0.217779
C1	C	0.291060	0.975012	0.532636
C2	C	0.042181	0.024694	0.035506
H1	H	0.245183	0.011831	0.460177
H2	H	0.495337	0.988400	0.963693
C3	C	0.392226	0.999467	0.540557
C4	C	0.143313	0.999720	0.041690
C5	C	0.449200	0.952237	0.635756
C6	C	0.201469	0.047233	0.135744
H3	H	0.027666	0.970603	0.644986
H4	H	0.280056	0.029159	0.143552
C7	C	0.203970	0.520841	0.541178
C8	C	0.457280	0.480360	0.042147
H5	H	0.249067	0.482258	0.471539
H6	H	0.003156	0.518378	0.972910
C9	C	0.245670	0.597932	0.628523
C10	C	0.498677	0.403347	0.130221
C11	C	0.249081	0.903609	0.622156
C12	C	0.001383	0.096050	0.125873
H7	H	0.423215	0.118160	0.127295
C13	C	0.402384	0.881084	0.721817
C14	C	0.155764	0.118649	0.222607
H8	H	0.442056	0.840512	0.797913
C15	C	0.093038	0.619955	0.721873
C16	C	0.346073	0.381359	0.222307
H9	H	0.053780	0.663137	0.794694
C17	C	0.046657	0.542831	0.637737
C18	C	0.299918	0.458270	0.137501
H10	H	0.468696	0.522384	0.644679
H11	H	0.221822	0.478144	0.143880
C19	C	0.103706	0.492992	0.547307
C20	C	0.356836	0.508112	0.046801
C21	C	0.436987	0.081917	0.453858
C22	C	0.186461	0.916651	0.954182
C23	C	0.060730	0.405840	0.461679
C24	C	0.312713	0.593879	0.959708
Ni3	Ni	0.747197	0.753640	0.835964
Ni4	Ni	0.500319	0.245480	0.339573
O9	O	0.611596	0.356377	0.377951
O10	O	0.862148	0.643663	0.875199
O11	O	0.887594	0.132093	0.366528
O12	O	0.635269	0.866605	0.868183
O13	O	0.971199	0.368506	0.466691
O14	O	0.722521	0.628961	0.964342
O15	O	0.527496	0.115997	0.463143
O16	O	0.776884	0.882169	0.960933
N5	N	0.804670	0.859220	0.713966
N6	N	0.558018	0.140503	0.216709
N7	N	0.690138	0.644396	0.716223
N8	N	0.943186	0.356492	0.217779
C25	C	0.791060	0.975012	0.532636
C26	C	0.542181	0.024694	0.035506
H12	H	0.745183	0.011831	0.460177
H13	H	0.995337	0.988400	0.963693
C27	C	0.892226	0.999467	0.540557
C28	C	0.643312	0.999720	0.041690
C29	C	0.949200	0.952237	0.635756
C30	C	0.701469	0.047233	0.135744
H14	H	0.527666	0.970603	0.644986
H15	H	0.780056	0.029159	0.143552
C31	C	0.703971	0.520841	0.541178
C32	C	0.957280	0.480360	0.042147
H16	H	0.749067	0.482258	0.471539
H17	H	0.503156	0.518378	0.972910
C33	C	0.745670	0.597932	0.628523
C34	C	0.998677	0.403347	0.130221
H18	H	0.823324	0.623149	0.630133
H19	H	0.576408	0.378457	0.132091
C35	C	0.749081	0.903609	0.622156
C36	C	0.501382	0.096050	0.125873
H20	H	0.923215	0.118160	0.127295
C37	C	0.902384	0.881084	0.721817
C38	C	0.655764	0.118649	0.222607
H21	H	0.942056	0.840512	0.797913
C39	C	0.593038	0.619955	0.721873
C40	C	0.846073	0.381359	0.222307
H22	H	0.806280	0.338513	0.294844
C41	C	0.546658	0.542831	0.637737
C42	C	0.799918	0.458270	0.137501
H23	H	0.968696	0.522384	0.644679
H24	H	0.721822	0.478144	0.143880
C43	C	0.603706	0.492992	0.547307
C44	C	0.856836	0.508112	0.046801
C45	C	0.936987	0.081917	0.453858
C46	C	0.686461	0.916651	0.954182
C47	C	0.560730	0.405840	0.461679
C48	C	0.812713	0.593879	0.959708
N9	N	0.144376	0.877961	0.614642
N10	N	0.103333	0.814702	0.692247
H25	H	0.028932	0.797616	0.685183
N11	N	0.215712	0.169366	0.320125
N12	N	0.178772	0.233699	0.400012
H26	H	0.222611	0.268731	0.468312
N13	N	0.349490	0.627326	0.623617
N14	N	0.390098	0.695872	0.699744
H27	H	0.463962	0.715520	0.694522
N15	N	0.287225	0.328213	0.316179
N16	N	0.324586	0.259002	0.394115
H28	H	0.281539	0.222330	0.459836
N17	N	0.644376	0.877961	0.614642
N18	N	0.603333	0.814702	0.692247
H29	H	0.528932	0.797616	0.685183
N19	N	0.715712	0.169366	0.320125
N20	N	0.678772	0.233699	0.400012
H30	H	0.722611	0.268731	0.468312
N21	N	0.534888	0.673645	0.815910
N22	N	0.572756	0.743136	0.893258
H31	H	0.530122	0.780215	0.959173
N23	N	1.102780	0.374535	0.125856
N24	N	1.143329	0.306288	0.202280
H32	H	1.217288	0.287038	0.197508

loop_
_geom_bond_atom_site_label_1
_geom_bond_atom_site_label_2
_geom_bond_distance
Ni1	O2	0.16385
Ni1	O4	0.16226
Ni1	O6	0.18065
Ni1	O8	0.18171
Ni1	N1	0.17127
Ni1	N3	0.17184
Ni2	O1	0.16172
Ni2	O7	0.18104
Ni2	N2	0.17160
Ni2	O11	0.16214
Ni2	O13	0.17928
Ni2	N8	0.17442
O1	C23	0.10975
O2	C24	0.10984
O3	C21	0.11218
O3	Ni4	0.16214
O4	C22	0.11190
O5	Ni4	0.17928
O5	C47	0.09713
O6	C24	0.09689
O7	C45	0.09716
O8	C22	0.09701
N1	C11	0.11614
N1	C13	0.10044
N2	C12	0.11591
N2	C14	0.10033
N3	C9	0.11373
N3	C15	0.10029
N4	C10	0.11376
N4	C16	0.10035
N4	Ni4	0.17442
C1	H1	0.09333
C1	C3	0.10438
C1	C11	0.12196
C2	C4	0.10435
C2	C12	0.12216
C2	H13	0.09311
H2	C26	0.09311
C3	C5	0.12058
C3	C21	0.12774
C4	C6	0.12036
C4	C22	0.12814
C5	C13	0.12108
C5	H14	0.08111
C6	H4	0.08102
C6	C14	0.12139
H3	C29	0.08111
C7	H5	0.09150
C7	C9	0.12374
C7	C19	0.10424
C8	C10	0.12410
C8	C20	0.10431
C8	H17	0.09134
H6	C32	0.09134
C9	N13	0.10801
C10	H19	0.08164
C11	N9	0.10806
C12	H20	0.08125
H7	C36	0.08125
C13	H8	0.09492
C14	N11	0.12520
C15	H9	0.09332
C15	C17	0.12320
C16	C18	0.12344
C16	N15	0.12288
C17	C19	0.11797
C17	H23	0.08090
C18	H11	0.08084
C18	C20	0.11811
H10	C41	0.08090
C19	C23	0.12952
C20	C24	0.12995
C21	O15	0.09716
C23	O13	0.09713
Ni3	O10	0.16385
Ni3	O12	0.16226
Ni3	O14	0.18065
Ni3	O16	0.18171
Ni3	N5	0.17127
Ni3	N7	0.17184
Ni4	O9	0.16172
Ni4	O15	0.18104
Ni4	N6	0.17160
O9	C47	0.10975
O10	C48	0.10984
O11	C45	0.11218
O12	C46	0.11190
O14	C48	0.09689
O16	C46	0.09701
N5	C35	0.11614
N5	C37	0.10044
N6	C36	0.11591
N6	C38	0.10033
N7	C33	0.11373
N7	C39	0.10029
N8	C34	0.11376
N8	C40	0.10035
C25	H12	0.09333
C25	C27	0.10438
C25	C35	0.12196
C26	C28	0.10435
C26	C36	0.12216
C27	C29	0.12058
C27	C45	0.12774
C28	C30	0.12036
C28	C46	0.12814
C29	C37	0.12108
C30	H15	0.08102
C30	C38	0.12139
C31	H16	0.09150
C31	C33	0.12374
C31	C43	0.10424
C32	C34	0.12410
C32	C44	0.10431
C33	H18	0.08166
C34	N23	0.10810
C35	N17	0.10806
C37	H21	0.09492
C38	N19	0.12520
C39	C41	0.12320
C39	N21	0.12291
C40	H22	0.09317
C40	C42	0.12344
C41	C43	0.11797
C42	H24	0.08084
C42	C44	0.11811
C43	C47	0.12952
C44	C48	0.12995
N9	N10	0.10821
N10	H25	0.07666
N11	N12	0.10902
N12	H26	0.08840
N13	N14	0.11019
N14	H27	0.07661
N15	N16	0.11073
N16	H28	0.08670
N17	N18	0.10821
N18	H29	0.07666
N19	N20	0.10902
N20	H30	0.08840
N21	N22	0.11066
N22	H31	0.08682
N23	N24	0.11019
N24	H32	0.07657
