data_IRMOF-1_clean_IRMOF-1_clean_aligned_O-CH3_IRMOF-1_clean_aligned_O-CH3_IRMOF-1_clean_aligned_O-CH3_IRMOF-1_clean_aligned_O-CH3_IRMOF-1_clean_aligned_O-CH3_IRMOF-1_clean_aligned_O-CH3_IRMOF-1_clean_aligned_O-CH3_IRMOF-1_clean_aligned_O-CH3_IRMOF-1_clean_aligned_O-CH3_IRMOF-1_clean_aligned_O-CH3_IRMOF-1_clean_aligned_O-CH3_IRMOF-1_clean_aligned_O-CH3_IRMOF-1_clean_aligned_O-CH3_IRMOF-1_clean_aligned_O-CH3_IRMOF-1_clean_aligned_O-CH3_IRMOF-1_clean_aligned_O-CH3_IRMOF-1_clean_aligned_O-CH3_IRMOF-1_clean_aligned_O-CH3_IRMOF-1_clean_aligned_O-CH3_IRMOF-1_clean_aligned_O-CH3_IRMOF-1_clean_aligned_O-CH3_IRMOF-1_clean_aligned_O-CH3_IRMOF-1_clean_aligned_O-CH3_IRMOF-1_clean_aligned_O-CH3_PM
_symmetry_space_group_name_H-M	'P1'
_cell_length_a	25.832000
_cell_length_b	25.832000
_cell_length_c	25.832000
_cell_angle_alpha	90.000000
_cell_angle_beta	90.000000
_cell_angle_gamma	90.000000
_symmetry_Int_Tables_number 1

loop_
_symmetry_equiv_pos_as_xyz
'x,y,z'

loop_
_atom_site_label
_atom_site_type_symbol
_atom_site_fract_x
_atom_site_fract_y
_atom_site_fract_z
Zn1	Zn	0.293380	0.206620	0.206620
Zn2	Zn	0.706620	0.793380	0.206620
Zn3	Zn	0.706620	0.206620	0.793380
Zn4	Zn	0.293380	0.793380	0.793380
Zn5	Zn	0.206620	0.293380	0.206620
Zn6	Zn	0.206620	0.706620	0.793380
Zn7	Zn	0.793380	0.706620	0.206620
Zn8	Zn	0.793380	0.293380	0.793380
Zn9	Zn	0.206620	0.206620	0.293380
Zn10	Zn	0.793380	0.206620	0.706620
Zn11	Zn	0.206620	0.793380	0.706620
Zn12	Zn	0.793380	0.793380	0.293380
Zn13	Zn	0.206620	0.293380	0.793380
Zn14	Zn	0.793380	0.706620	0.793380
Zn15	Zn	0.206620	0.706620	0.206620
Zn16	Zn	0.793380	0.293380	0.206620
Zn17	Zn	0.293380	0.206620	0.793380
Zn18	Zn	0.706620	0.206620	0.206620
Zn19	Zn	0.706620	0.793380	0.793380
Zn20	Zn	0.293380	0.793380	0.206620
Zn21	Zn	0.206620	0.206620	0.706620
Zn22	Zn	0.206620	0.793380	0.293380
Zn23	Zn	0.793380	0.206620	0.293380
Zn24	Zn	0.793380	0.793380	0.706620
Zn25	Zn	0.293380	0.706620	0.706620
Zn26	Zn	0.706620	0.293380	0.706620
Zn27	Zn	0.706620	0.706620	0.293380
Zn28	Zn	0.293380	0.293380	0.293380
Zn29	Zn	0.293380	0.706620	0.293380
Zn30	Zn	0.706620	0.706620	0.706620
Zn31	Zn	0.706620	0.293380	0.293380
Zn32	Zn	0.293380	0.293380	0.706620
O1	O	0.250000	0.250000	0.250000
O2	O	0.750000	0.750000	0.250000
O3	O	0.750000	0.250000	0.750000
O4	O	0.250000	0.750000	0.750000
O5	O	0.250000	0.250000	0.750000
O6	O	0.750000	0.750000	0.750000
O7	O	0.250000	0.750000	0.250000
O8	O	0.750000	0.250000	0.250000
O9	O	0.281870	0.218130	0.134000
O10	O	0.718130	0.781870	0.134000
O11	O	0.718130	0.218130	0.866000
O12	O	0.281870	0.781870	0.866000
O13	O	0.134000	0.281870	0.218130
O14	O	0.134000	0.718130	0.781870
O15	O	0.866000	0.718130	0.218130
O16	O	0.866000	0.281870	0.781870
O17	O	0.218130	0.134000	0.281870
O18	O	0.781870	0.134000	0.718130
O19	O	0.218130	0.866000	0.718130
O20	O	0.781870	0.866000	0.281870
O21	O	0.218130	0.281870	0.866000
O22	O	0.781870	0.718130	0.866000
O23	O	0.218130	0.718130	0.134000
O24	O	0.781870	0.281870	0.134000
O25	O	0.281870	0.134000	0.781870
O26	O	0.718130	0.134000	0.218130
O27	O	0.718130	0.866000	0.781870
O28	O	0.281870	0.866000	0.218130
O29	O	0.134000	0.218130	0.718130
O30	O	0.134000	0.781870	0.281870
O31	O	0.866000	0.218130	0.281870
O32	O	0.866000	0.781870	0.718130
O33	O	0.281870	0.718130	0.634000
O34	O	0.718130	0.281870	0.634000
O35	O	0.718130	0.718130	0.366000
O36	O	0.281870	0.281870	0.366000
O37	O	0.134000	0.781870	0.718130
O38	O	0.134000	0.218130	0.281870
O39	O	0.866000	0.218130	0.718130
O40	O	0.866000	0.781870	0.281870
O41	O	0.218130	0.634000	0.781870
O42	O	0.781870	0.634000	0.218130
O43	O	0.218130	0.366000	0.218130
O44	O	0.781870	0.366000	0.781870
O45	O	0.218130	0.781870	0.366000
O46	O	0.781870	0.218130	0.366000
O47	O	0.218130	0.218130	0.634000
O48	O	0.781870	0.781870	0.634000
O49	O	0.281870	0.634000	0.281870
O50	O	0.718130	0.634000	0.718130
O51	O	0.718130	0.366000	0.281870
O52	O	0.281870	0.366000	0.718130
O53	O	0.134000	0.718130	0.218130
O54	O	0.134000	0.281870	0.781870
O55	O	0.866000	0.718130	0.781870
O56	O	0.866000	0.281870	0.218130
O57	O	0.781870	0.218130	0.634000
O58	O	0.218130	0.781870	0.634000
O59	O	0.218130	0.218130	0.366000
O60	O	0.781870	0.781870	0.366000
O61	O	0.634000	0.281870	0.718130
O62	O	0.634000	0.718130	0.281870
O63	O	0.366000	0.718130	0.718130
O64	O	0.366000	0.281870	0.281870
O65	O	0.718130	0.134000	0.781870
O66	O	0.281870	0.134000	0.218130
O67	O	0.718130	0.866000	0.218130
O68	O	0.281870	0.866000	0.781870
O69	O	0.718130	0.281870	0.366000
O70	O	0.281870	0.718130	0.366000
O71	O	0.718130	0.718130	0.634000
O72	O	0.281870	0.281870	0.634000
O73	O	0.781870	0.134000	0.281870
O74	O	0.218130	0.134000	0.718130
O75	O	0.218130	0.866000	0.281870
O76	O	0.781870	0.866000	0.718130
O77	O	0.634000	0.218130	0.218130
O78	O	0.634000	0.781870	0.781870
O79	O	0.366000	0.218130	0.781870
O80	O	0.366000	0.781870	0.218130
O81	O	0.781870	0.718130	0.134000
O82	O	0.218130	0.281870	0.134000
O83	O	0.218130	0.718130	0.866000
O84	O	0.781870	0.281870	0.866000
O85	O	0.634000	0.781870	0.218130
O86	O	0.634000	0.218130	0.781870
O87	O	0.366000	0.218130	0.218130
O88	O	0.366000	0.781870	0.781870
O89	O	0.718130	0.634000	0.281870
O90	O	0.281870	0.634000	0.718130
O91	O	0.718130	0.366000	0.718130
O92	O	0.281870	0.366000	0.281870
O93	O	0.718130	0.781870	0.866000
O94	O	0.281870	0.218130	0.866000
O95	O	0.718130	0.218130	0.134000
O96	O	0.281870	0.781870	0.134000
O97	O	0.781870	0.634000	0.781870
O98	O	0.218130	0.634000	0.218130
O99	O	0.218130	0.366000	0.781870
O100	O	0.781870	0.366000	0.218130
O101	O	0.634000	0.718130	0.718130
O102	O	0.634000	0.281870	0.281870
O103	O	0.366000	0.718130	0.281870
O104	O	0.366000	0.281870	0.718130
C1	C	0.250000	0.250000	0.111300
C2	C	0.750000	0.750000	0.111300
C3	C	0.750000	0.250000	0.888700
C4	C	0.250000	0.750000	0.888700
C5	C	0.111300	0.250000	0.250000
C6	C	0.111300	0.750000	0.750000
C7	C	0.888700	0.750000	0.250000
C8	C	0.888700	0.250000	0.750000
C9	C	0.250000	0.111300	0.250000
C10	C	0.750000	0.111300	0.750000
C11	C	0.250000	0.888700	0.750000
C12	C	0.750000	0.888700	0.250000
C13	C	0.250000	0.250000	0.888700
C14	C	0.750000	0.750000	0.888700
C15	C	0.250000	0.750000	0.111300
C16	C	0.750000	0.250000	0.111300
C17	C	0.250000	0.111300	0.750000
C18	C	0.750000	0.111300	0.250000
C19	C	0.750000	0.888700	0.750000
C20	C	0.250000	0.888700	0.250000
C21	C	0.111300	0.250000	0.750000
C22	C	0.111300	0.750000	0.250000
C23	C	0.888700	0.250000	0.250000
C24	C	0.888700	0.750000	0.750000
C25	C	0.250000	0.750000	0.611300
C26	C	0.750000	0.250000	0.611300
C27	C	0.750000	0.750000	0.388700
C28	C	0.250000	0.250000	0.388700
C29	C	0.250000	0.611300	0.750000
C30	C	0.750000	0.611300	0.250000
C31	C	0.250000	0.388700	0.250000
C32	C	0.750000	0.388700	0.750000
C33	C	0.250000	0.750000	0.388700
C34	C	0.750000	0.250000	0.388700
C35	C	0.250000	0.250000	0.611300
C36	C	0.750000	0.750000	0.611300
C37	C	0.250000	0.611300	0.250000
C38	C	0.750000	0.611300	0.750000
C39	C	0.750000	0.388700	0.250000
C40	C	0.250000	0.388700	0.750000
C41	C	0.611300	0.250000	0.750000
C42	C	0.611300	0.750000	0.250000
C43	C	0.388700	0.750000	0.750000
C44	C	0.388700	0.250000	0.250000
C45	C	0.611300	0.250000	0.250000
C46	C	0.611300	0.750000	0.750000
C47	C	0.388700	0.250000	0.750000
C48	C	0.388700	0.750000	0.250000
C49	C	0.250000	0.250000	0.053800
C50	C	0.750000	0.750000	0.053800
C51	C	0.750000	0.250000	0.946200
C52	C	0.250000	0.750000	0.946200
C53	C	0.053800	0.250000	0.250000
C54	C	0.053800	0.750000	0.750000
C55	C	0.946200	0.750000	0.250000
C56	C	0.946200	0.250000	0.750000
C57	C	0.250000	0.053800	0.250000
C58	C	0.750000	0.053800	0.750000
C59	C	0.250000	0.946200	0.750000
C60	C	0.750000	0.946200	0.250000
C61	C	0.250000	0.250000	0.946200
C62	C	0.750000	0.750000	0.946200
C63	C	0.250000	0.750000	0.053800
C64	C	0.750000	0.250000	0.053800
C65	C	0.250000	0.053800	0.750000
C66	C	0.750000	0.053800	0.250000
C67	C	0.750000	0.946200	0.750000
C68	C	0.250000	0.946200	0.250000
C69	C	0.053800	0.250000	0.750000
C70	C	0.053800	0.750000	0.250000
C71	C	0.946200	0.250000	0.250000
C72	C	0.946200	0.750000	0.750000
C73	C	0.250000	0.750000	0.553800
C74	C	0.750000	0.250000	0.553800
C75	C	0.750000	0.750000	0.446200
C76	C	0.250000	0.250000	0.446200
C77	C	0.250000	0.553800	0.750000
C78	C	0.750000	0.553800	0.250000
C79	C	0.250000	0.446200	0.250000
C80	C	0.750000	0.446200	0.750000
C81	C	0.250000	0.750000	0.446200
C82	C	0.750000	0.250000	0.446200
C83	C	0.250000	0.250000	0.553800
C84	C	0.750000	0.750000	0.553800
C85	C	0.250000	0.553800	0.250000
C86	C	0.750000	0.553800	0.750000
C87	C	0.750000	0.446200	0.250000
C88	C	0.250000	0.446200	0.750000
C89	C	0.553800	0.250000	0.750000
C90	C	0.553800	0.750000	0.250000
C91	C	0.446200	0.750000	0.750000
C92	C	0.446200	0.250000	0.250000
C93	C	0.553800	0.250000	0.250000
C94	C	0.553800	0.750000	0.750000
C95	C	0.446200	0.250000	0.750000
C96	C	0.446200	0.750000	0.250000
C97	C	0.282900	0.217100	0.026900
C98	C	0.717100	0.782900	0.026900
C99	C	0.717100	0.217100	0.973100
C100	C	0.282900	0.782900	0.973100
C101	C	0.026900	0.282900	0.217100
C102	C	0.026900	0.717100	0.782900
C103	C	0.973100	0.717100	0.217100
C104	C	0.973100	0.282900	0.782900
C105	C	0.217100	0.026900	0.282900
C106	C	0.782900	0.026900	0.717100
C107	C	0.217100	0.973100	0.717100
C108	C	0.782900	0.973100	0.282900
C109	C	0.217100	0.282900	0.973100
C110	C	0.782900	0.717100	0.973100
C111	C	0.217100	0.717100	0.026900
C112	C	0.782900	0.282900	0.026900
C113	C	0.282900	0.026900	0.782900
C114	C	0.717100	0.026900	0.217100
C115	C	0.717100	0.973100	0.782900
C116	C	0.282900	0.973100	0.217100
C117	C	0.026900	0.217100	0.717100
C118	C	0.026900	0.782900	0.282900
C119	C	0.973100	0.217100	0.282900
C120	C	0.973100	0.782900	0.717100
C121	C	0.282900	0.717100	0.526900
C122	C	0.717100	0.282900	0.526900
C123	C	0.717100	0.717100	0.473100
C124	C	0.282900	0.282900	0.473100
C125	C	0.026900	0.782900	0.717100
C126	C	0.026900	0.217100	0.282900
C127	C	0.973100	0.217100	0.717100
C128	C	0.973100	0.782900	0.282900
C129	C	0.217100	0.526900	0.782900
C130	C	0.782900	0.526900	0.217100
C131	C	0.217100	0.473100	0.217100
C132	C	0.782900	0.473100	0.782900
C133	C	0.217100	0.782900	0.473100
C134	C	0.782900	0.217100	0.473100
C135	C	0.217100	0.217100	0.526900
C136	C	0.782900	0.782900	0.526900
C137	C	0.282900	0.526900	0.282900
C138	C	0.717100	0.526900	0.717100
C139	C	0.717100	0.473100	0.282900
C140	C	0.282900	0.473100	0.717100
C141	C	0.026900	0.717100	0.217100
C142	C	0.026900	0.282900	0.782900
C143	C	0.973100	0.717100	0.782900
C144	C	0.973100	0.282900	0.217100
C145	C	0.782900	0.217100	0.526900
C146	C	0.217100	0.782900	0.526900
C147	C	0.217100	0.217100	0.473100
C148	C	0.782900	0.782900	0.473100
C149	C	0.526900	0.282900	0.717100
C150	C	0.526900	0.717100	0.282900
C151	C	0.473100	0.717100	0.717100
C152	C	0.473100	0.282900	0.282900
C153	C	0.717100	0.026900	0.782900
C154	C	0.282900	0.026900	0.217100
C155	C	0.717100	0.973100	0.217100
C156	C	0.282900	0.973100	0.782900
C157	C	0.717100	0.282900	0.473100
C158	C	0.282900	0.717100	0.473100
C159	C	0.717100	0.717100	0.526900
C160	C	0.282900	0.282900	0.526900
C161	C	0.782900	0.026900	0.282900
C162	C	0.217100	0.026900	0.717100
C163	C	0.217100	0.973100	0.282900
C164	C	0.782900	0.973100	0.717100
C165	C	0.526900	0.217100	0.217100
C166	C	0.526900	0.782900	0.782900
C167	C	0.473100	0.217100	0.782900
C168	C	0.473100	0.782900	0.217100
C169	C	0.782900	0.717100	0.026900
C170	C	0.217100	0.282900	0.026900
C171	C	0.217100	0.717100	0.973100
C172	C	0.782900	0.282900	0.973100
C173	C	0.526900	0.782900	0.217100
C174	C	0.526900	0.217100	0.782900
C175	C	0.473100	0.217100	0.217100
C176	C	0.473100	0.782900	0.782900
C177	C	0.717100	0.526900	0.282900
C178	C	0.282900	0.526900	0.717100
C179	C	0.717100	0.473100	0.717100
C180	C	0.282900	0.473100	0.282900
C181	C	0.717100	0.782900	0.973100
C182	C	0.282900	0.217100	0.973100
C183	C	0.717100	0.217100	0.026900
C184	C	0.282900	0.782900	0.026900
C185	C	0.782900	0.526900	0.782900
C186	C	0.217100	0.526900	0.217100
C187	C	0.217100	0.473100	0.782900
C188	C	0.782900	0.473100	0.217100
C189	C	0.526900	0.717100	0.717100
C190	C	0.526900	0.282900	0.282900
C191	C	0.473100	0.717100	0.282900
C192	C	0.473100	0.282900	0.717100
H1	H	0.304900	0.195100	0.044800
H2	H	0.695100	0.804900	0.044800
H3	H	0.695100	0.195100	0.955200
H4	H	0.304900	0.804900	0.955200
H5	H	0.044800	0.304900	0.195100
H6	H	0.044800	0.695100	0.804900
H7	H	0.955200	0.695100	0.195100
H8	H	0.955200	0.304900	0.804900
H9	H	0.195100	0.044800	0.304900
H10	H	0.804900	0.044800	0.695100
H11	H	0.195100	0.955200	0.695100
H12	H	0.804900	0.955200	0.304900
H13	H	0.304900	0.695100	0.544800
H14	H	0.695100	0.304900	0.544800
H15	H	0.695100	0.695100	0.455200
H16	H	0.304900	0.304900	0.455200
H17	H	0.044800	0.804900	0.695100
H18	H	0.044800	0.195100	0.304900
H19	H	0.955200	0.195100	0.695100
H20	H	0.955200	0.804900	0.304900
H21	H	0.195100	0.544800	0.804900
H22	H	0.804900	0.544800	0.195100
H23	H	0.195100	0.455200	0.195100
H24	H	0.804900	0.455200	0.804900
H25	H	0.044800	0.695100	0.195100
H26	H	0.044800	0.304900	0.804900
H27	H	0.955200	0.695100	0.804900
H28	H	0.955200	0.304900	0.195100
H29	H	0.804900	0.195100	0.544800
H30	H	0.195100	0.804900	0.544800
H31	H	0.195100	0.195100	0.455200
H32	H	0.804900	0.804900	0.455200
H33	H	0.544800	0.304900	0.695100
H34	H	0.544800	0.695100	0.304900
H35	H	0.455200	0.695100	0.695100
H36	H	0.455200	0.304900	0.304900
H37	H	0.695100	0.044800	0.804900
H38	H	0.304900	0.044800	0.195100
H39	H	0.695100	0.955200	0.195100
H40	H	0.304900	0.955200	0.804900
H41	H	0.695100	0.304900	0.455200
H42	H	0.304900	0.695100	0.455200
H43	H	0.695100	0.695100	0.544800
H44	H	0.304900	0.304900	0.544800
H45	H	0.804900	0.044800	0.304900
H46	H	0.195100	0.044800	0.695100
H47	H	0.195100	0.955200	0.304900
H48	H	0.804900	0.955200	0.695100
H49	H	0.804900	0.695100	0.044800
H50	H	0.195100	0.304900	0.044800
H51	H	0.195100	0.695100	0.955200
H52	H	0.804900	0.304900	0.955200
H53	H	0.544800	0.804900	0.195100
H54	H	0.544800	0.195100	0.804900
H55	H	0.455200	0.195100	0.195100
H56	H	0.455200	0.804900	0.804900
H57	H	0.695100	0.544800	0.304900
H58	H	0.304900	0.544800	0.695100
H59	H	0.695100	0.455200	0.695100
H60	H	0.304900	0.455200	0.304900
H61	H	0.695100	0.804900	0.955200
H62	H	0.304900	0.195100	0.955200
H63	H	0.695100	0.195100	0.044800
H64	H	0.304900	0.804900	0.044800
H65	H	0.804900	0.544800	0.804900
H66	H	0.195100	0.544800	0.195100
H67	H	0.195100	0.455200	0.804900
H68	H	0.804900	0.455200	0.195100
H69	H	0.544800	0.695100	0.695100
H70	H	0.544800	0.304900	0.304900
H71	H	0.455200	0.695100	0.304900
H72	H	0.455200	0.304900	0.695100
O105	O	0.184661	0.315339	0.945799
C193	C	0.150054	0.349946	0.967236
H73	H	0.129484	0.370515	0.935651
H74	H	0.170888	0.379018	0.991115
H75	H	0.120981	0.329111	0.991115
O106	O	0.815339	0.684661	0.945799
C194	C	0.849946	0.650054	0.967236
H76	H	0.870516	0.629485	0.935651
H77	H	0.829112	0.620982	0.991115
H78	H	0.879019	0.670889	0.991115
O107	O	0.815339	0.315339	0.054201
C195	C	0.849946	0.349946	0.032764
H79	H	0.870515	0.370516	0.064349
H80	H	0.879018	0.329112	0.008885
H81	H	0.829111	0.379019	0.008885
O108	O	0.184661	0.684661	0.054201
C196	C	0.150054	0.650054	0.032764
H82	H	0.129484	0.629485	0.064349
H83	H	0.170888	0.620982	0.008885
H84	H	0.120981	0.670889	0.008885
O109	O	0.945799	0.184661	0.315339
C197	C	0.967236	0.150054	0.349946
H85	H	0.935651	0.129485	0.370516
H86	H	0.991115	0.120982	0.329112
H87	H	0.991115	0.170889	0.379019
O110	O	0.945799	0.815339	0.684661
C198	C	0.967236	0.849946	0.650054
H88	H	0.935651	0.870515	0.629484
H89	H	0.991115	0.879018	0.670888
H90	H	0.991115	0.829111	0.620981
O111	O	0.054201	0.815339	0.315339
C199	C	0.032764	0.849946	0.349946
H91	H	0.064349	0.870515	0.370516
H92	H	0.008885	0.879018	0.329112
H93	H	0.008885	0.829111	0.379019
O112	O	0.054201	0.184661	0.684661
C200	C	0.032764	0.150054	0.650054
H94	H	0.064349	0.129484	0.629485
H95	H	0.008885	0.170888	0.620982
H96	H	0.008885	0.120981	0.670889
O113	O	0.315339	0.945799	0.184661
C201	C	0.349946	0.967236	0.150054
H97	H	0.370516	0.935651	0.129485
H98	H	0.329112	0.991115	0.120982
H99	H	0.379019	0.991115	0.170889
O114	O	0.684661	0.945799	0.815339
C202	C	0.650054	0.967236	0.849946
H100	H	0.629485	0.935651	0.870516
H101	H	0.620982	0.991115	0.829112
H102	H	0.670889	0.991115	0.879019
O115	O	0.315339	0.054201	0.815339
C203	C	0.349946	0.032764	0.849946
H103	H	0.370516	0.064349	0.870515
H104	H	0.329112	0.008885	0.879018
H105	H	0.379019	0.008885	0.829111
O116	O	0.684661	0.054201	0.184661
C204	C	0.650054	0.032764	0.150054
H106	H	0.629484	0.064349	0.129485
H107	H	0.670888	0.008885	0.120982
H108	H	0.620981	0.008885	0.170889
O117	O	0.184661	0.815339	0.445799
C205	C	0.150054	0.849946	0.467236
H109	H	0.129485	0.870516	0.435651
H110	H	0.120982	0.829112	0.491115
H111	H	0.170889	0.879019	0.491115
O118	O	0.815339	0.184661	0.445799
C206	C	0.849946	0.150054	0.467236
H112	H	0.870516	0.129485	0.435651
H113	H	0.829112	0.120982	0.491115
H114	H	0.879019	0.170889	0.491115
O119	O	0.815339	0.815339	0.554201
C207	C	0.849946	0.849946	0.532764
H115	H	0.870516	0.870515	0.564349
H116	H	0.829112	0.879018	0.508885
H117	H	0.879019	0.829111	0.508885
O120	O	0.184661	0.184661	0.554201
C208	C	0.150054	0.150054	0.532764
H118	H	0.129485	0.129484	0.564349
H119	H	0.120982	0.170888	0.508885
H120	H	0.170889	0.120981	0.508885
O121	O	0.315339	0.445799	0.684661
C209	C	0.349946	0.467236	0.650054
H121	H	0.370516	0.435651	0.629485
H122	H	0.329112	0.491115	0.620982
H123	H	0.379019	0.491115	0.670889
O122	O	0.684661	0.445799	0.315339
C210	C	0.650054	0.467236	0.349946
H124	H	0.629484	0.435651	0.370515
H125	H	0.670888	0.491115	0.379018
H126	H	0.620981	0.491115	0.329111
O123	O	0.315339	0.554201	0.315339
C211	C	0.349946	0.532764	0.349946
H127	H	0.370516	0.564349	0.370515
H128	H	0.329112	0.508885	0.379018
H129	H	0.379019	0.508885	0.329111
O124	O	0.684661	0.554201	0.684661
C212	C	0.650054	0.532764	0.650054
H130	H	0.629485	0.564349	0.629484
H131	H	0.620982	0.508885	0.670888
H132	H	0.670889	0.508885	0.620981
O125	O	0.445799	0.184661	0.815339
C213	C	0.467236	0.150054	0.849946
H133	H	0.435651	0.129485	0.870516
H134	H	0.491115	0.120982	0.829112
H135	H	0.491115	0.170889	0.879019
O126	O	0.445799	0.815339	0.184661
C214	C	0.467236	0.849946	0.150054
H136	H	0.435651	0.870516	0.129485
H137	H	0.491115	0.829112	0.120982
H138	H	0.491115	0.879019	0.170889
O127	O	0.554201	0.815339	0.815339
C215	C	0.532764	0.849946	0.849946
H139	H	0.564349	0.870516	0.870515
H140	H	0.508885	0.829112	0.879018
H141	H	0.508885	0.879019	0.829111
O128	O	0.554201	0.184661	0.184661
C216	C	0.532764	0.150054	0.150054
H142	H	0.564349	0.129485	0.129484
H143	H	0.508885	0.120982	0.170888
H144	H	0.508885	0.170889	0.120981

loop_
_geom_bond_atom_site_label_1
_geom_bond_atom_site_label_2
_geom_bond_distance
Zn1	O1	0.07514
Zn1	O9	0.07442
Zn1	O66	0.07442
Zn1	O87	0.07442
Zn2	O2	0.07514
Zn2	O10	0.07442
Zn2	O67	0.07442
Zn2	O85	0.07442
Zn3	O3	0.07514
Zn3	O11	0.07442
Zn3	O65	0.07442
Zn3	O86	0.07442
Zn4	O4	0.07514
Zn4	O12	0.07442
Zn4	O68	0.07442
Zn4	O88	0.07442
Zn5	O1	0.07514
Zn5	O13	0.07442
Zn5	O43	0.07442
Zn5	O82	0.07442
Zn6	O4	0.07514
Zn6	O14	0.07442
Zn6	O41	0.07442
Zn6	O83	0.07442
Zn7	O2	0.07514
Zn7	O15	0.07442
Zn7	O42	0.07442
Zn7	O81	0.07442
Zn8	O3	0.07514
Zn8	O16	0.07442
Zn8	O44	0.07442
Zn8	O84	0.07442
Zn9	O1	0.07514
Zn9	O17	0.07442
Zn9	O38	0.07442
Zn9	O59	0.07442
Zn10	O3	0.07514
Zn10	O18	0.07442
Zn10	O39	0.07442
Zn10	O57	0.07442
Zn11	O4	0.07514
Zn11	O19	0.07442
Zn11	O37	0.07442
Zn11	O58	0.07442
Zn12	O2	0.07514
Zn12	O20	0.07442
Zn12	O40	0.07442
Zn12	O60	0.07442
Zn13	O5	0.07514
Zn13	O21	0.07442
Zn13	O54	0.07442
Zn13	O99	0.07442
Zn14	O6	0.07514
Zn14	O22	0.07442
Zn14	O55	0.07442
Zn14	O97	0.07442
Zn15	O7	0.07514
Zn15	O23	0.07442
Zn15	O53	0.07442
Zn15	O98	0.07442
Zn16	O8	0.07514
Zn16	O24	0.07442
Zn16	O56	0.07442
Zn16	O100	0.07442
Zn17	O5	0.07514
Zn17	O25	0.07442
Zn17	O79	0.07442
Zn17	O94	0.07442
Zn18	O8	0.07514
Zn18	O26	0.07442
Zn18	O77	0.07442
Zn18	O95	0.07442
Zn19	O6	0.07514
Zn19	O27	0.07442
Zn19	O78	0.07442
Zn19	O93	0.07442
Zn20	O7	0.07514
Zn20	O28	0.07442
Zn20	O80	0.07442
Zn20	O96	0.07442
Zn21	O5	0.07514
Zn21	O29	0.07442
Zn21	O47	0.07442
Zn21	O74	0.07442
Zn22	O7	0.07514
Zn22	O30	0.07442
Zn22	O45	0.07442
Zn22	O75	0.07442
Zn23	O8	0.07514
Zn23	O31	0.07442
Zn23	O46	0.07442
Zn23	O73	0.07442
Zn24	O6	0.07514
Zn24	O32	0.07442
Zn24	O48	0.07442
Zn24	O76	0.07442
Zn25	O4	0.07514
Zn25	O33	0.07442
Zn25	O63	0.07442
Zn25	O90	0.07442
Zn26	O3	0.07514
Zn26	O34	0.07442
Zn26	O61	0.07442
Zn26	O91	0.07442
Zn27	O2	0.07514
Zn27	O35	0.07442
Zn27	O62	0.07442
Zn27	O89	0.07442
Zn28	O1	0.07514
Zn28	O36	0.07442
Zn28	O64	0.07442
Zn28	O92	0.07442
Zn29	O7	0.07514
Zn29	O49	0.07442
Zn29	O70	0.07442
Zn29	O103	0.07442
Zn30	O6	0.07514
Zn30	O50	0.07442
Zn30	O71	0.07442
Zn30	O101	0.07442
Zn31	O8	0.07514
Zn31	O51	0.07442
Zn31	O69	0.07442
Zn31	O102	0.07442
Zn32	O5	0.07514
Zn32	O52	0.07442
Zn32	O72	0.07442
Zn32	O104	0.07442
O9	C1	0.05046
O10	C2	0.05046
O11	C3	0.05046
O12	C4	0.05046
O13	C5	0.05046
O14	C6	0.05046
O15	C7	0.05046
O16	C8	0.05046
O17	C9	0.05046
O18	C10	0.05046
O19	C11	0.05046
O20	C12	0.05046
O21	C13	0.05046
O22	C14	0.05046
O23	C15	0.05046
O24	C16	0.05046
O25	C17	0.05046
O26	C18	0.05046
O27	C19	0.05046
O28	C20	0.05046
O29	C21	0.05046
O30	C22	0.05046
O31	C23	0.05046
O32	C24	0.05046
O33	C25	0.05046
O34	C26	0.05046
O35	C27	0.05046
O36	C28	0.05046
O37	C6	0.05046
O38	C5	0.05046
O39	C8	0.05046
O40	C7	0.05046
O41	C29	0.05046
O42	C30	0.05046
O43	C31	0.05046
O44	C32	0.05046
O45	C33	0.05046
O46	C34	0.05046
O47	C35	0.05046
O48	C36	0.05046
O49	C37	0.05046
O50	C38	0.05046
O51	C39	0.05046
O52	C40	0.05046
O53	C22	0.05046
O54	C21	0.05046
O55	C24	0.05046
O56	C23	0.05046
O57	C26	0.05046
O58	C25	0.05046
O59	C28	0.05046
O60	C27	0.05046
O61	C41	0.05046
O62	C42	0.05046
O63	C43	0.05046
O64	C44	0.05046
O65	C10	0.05046
O66	C9	0.05046
O67	C12	0.05046
O68	C11	0.05046
O69	C34	0.05046
O70	C33	0.05046
O71	C36	0.05046
O72	C35	0.05046
O73	C18	0.05046
O74	C17	0.05046
O75	C20	0.05046
O76	C19	0.05046
O77	C45	0.05046
O78	C46	0.05046
O79	C47	0.05046
O80	C48	0.05046
O81	C2	0.05046
O82	C1	0.05046
O83	C4	0.05046
O84	C3	0.05046
O85	C42	0.05046
O86	C41	0.05046
O87	C44	0.05046
O88	C43	0.05046
O89	C30	0.05046
O90	C29	0.05046
O91	C32	0.05046
O92	C31	0.05046
O93	C14	0.05046
O94	C13	0.05046
O95	C16	0.05046
O96	C15	0.05046
O97	C38	0.05046
O98	C37	0.05046
O99	C40	0.05046
O100	C39	0.05046
O101	C46	0.05046
O102	C45	0.05046
O103	C48	0.05046
O104	C47	0.05046
C1	C49	0.05750
C2	C50	0.05750
C3	C51	0.05750
C4	C52	0.05750
C5	C53	0.05750
C6	C54	0.05750
C7	C55	0.05750
C8	C56	0.05750
C9	C57	0.05750
C10	C58	0.05750
C11	C59	0.05750
C12	C60	0.05750
C13	C61	0.05750
C14	C62	0.05750
C15	C63	0.05750
C16	C64	0.05750
C17	C65	0.05750
C18	C66	0.05750
C19	C67	0.05750
C20	C68	0.05750
C21	C69	0.05750
C22	C70	0.05750
C23	C71	0.05750
C24	C72	0.05750
C25	C73	0.05750
C26	C74	0.05750
C27	C75	0.05750
C28	C76	0.05750
C29	C77	0.05750
C30	C78	0.05750
C31	C79	0.05750
C32	C80	0.05750
C33	C81	0.05750
C34	C82	0.05750
C35	C83	0.05750
C36	C84	0.05750
C37	C85	0.05750
C38	C86	0.05750
C39	C87	0.05750
C40	C88	0.05750
C41	C89	0.05750
C42	C90	0.05750
C43	C91	0.05750
C44	C92	0.05750
C45	C93	0.05750
C46	C94	0.05750
C47	C95	0.05750
C48	C96	0.05750
C49	C97	0.05374
C49	C170	0.05374
C50	C98	0.05374
C50	C169	0.05374
C51	C99	0.05374
C51	C172	0.05374
C52	C100	0.05374
C52	C171	0.05374
C53	C101	0.05374
C53	C126	0.05374
C54	C102	0.05374
C54	C125	0.05374
C55	C103	0.05374
C55	C128	0.05374
C56	C104	0.05374
C56	C127	0.05374
C57	C105	0.05374
C57	C154	0.05374
C58	C106	0.05374
C58	C153	0.05374
C59	C107	0.05374
C59	C156	0.05374
C60	C108	0.05374
C60	C155	0.05374
C61	C109	0.05374
C61	C182	0.05374
C62	C110	0.05374
C62	C181	0.05374
C63	C111	0.05374
C63	C184	0.05374
C64	C112	0.05374
C64	C183	0.05374
C65	C113	0.05374
C65	C162	0.05374
C66	C114	0.05374
C66	C161	0.05374
C67	C115	0.05374
C67	C164	0.05374
C68	C116	0.05374
C68	C163	0.05374
C69	C117	0.05374
C69	C142	0.05374
C70	C118	0.05374
C70	C141	0.05374
C71	C119	0.05374
C71	C144	0.05374
C72	C120	0.05374
C72	C143	0.05374
C73	C121	0.05374
C73	C146	0.05374
C74	C122	0.05374
C74	C145	0.05374
C75	C123	0.05374
C75	C148	0.05374
C76	C124	0.05374
C76	C147	0.05374
C77	C129	0.05374
C77	C178	0.05374
C78	C130	0.05374
C78	C177	0.05374
C79	C131	0.05374
C79	C180	0.05374
C80	C132	0.05374
C80	C179	0.05374
C81	C133	0.05374
C81	C158	0.05374
C82	C134	0.05374
C82	C157	0.05374
C83	C135	0.05374
C83	C160	0.05374
C84	C136	0.05374
C84	C159	0.05374
C85	C137	0.05374
C85	C186	0.05374
C86	C138	0.05374
C86	C185	0.05374
C87	C139	0.05374
C87	C188	0.05374
C88	C140	0.05374
C88	C187	0.05374
C89	C149	0.05374
C89	C174	0.05374
C90	C150	0.05374
C90	C173	0.05374
C91	C151	0.05374
C91	C176	0.05374
C92	C152	0.05374
C92	C175	0.05374
C93	C165	0.05374
C93	C190	0.05374
C94	C166	0.05374
C94	C189	0.05374
C95	C167	0.05374
C95	C192	0.05374
C96	C168	0.05374
C96	C191	0.05374
C97	C182	0.05380
C97	H1	0.03589
C98	C181	0.05380
C98	H2	0.03589
C99	C183	0.05380
C99	H3	0.03589
C100	C184	0.05380
C100	H4	0.03589
C101	C144	0.05380
C101	H5	0.03589
C102	C143	0.05380
C102	H6	0.03589
C103	C141	0.05380
C103	H7	0.03589
C104	C142	0.05380
C104	H8	0.03589
C105	C163	0.05380
C105	H9	0.03589
C106	C164	0.05380
C106	H10	0.03589
C107	C162	0.05380
C107	H11	0.03589
C108	C161	0.05380
C108	H12	0.03589
C109	C170	0.05380
C109	O105	0.05338
C110	C169	0.05380
C110	O106	0.05338
C111	C171	0.05380
C111	O108	0.05338
C112	C172	0.05380
C112	O107	0.05338
C113	C156	0.05380
C113	O115	0.05338
C114	C155	0.05380
C114	O116	0.05338
C115	C153	0.05380
C115	O114	0.05338
C116	C154	0.05380
C116	O113	0.05338
C117	C127	0.05380
C117	O112	0.05338
C118	C128	0.05380
C118	O111	0.05338
C119	C126	0.05380
C119	O109	0.05338
C120	C125	0.05380
C120	O110	0.05338
C121	C158	0.05380
C121	H13	0.03589
C122	C157	0.05380
C122	H14	0.03589
C123	C159	0.05380
C123	H15	0.03589
C124	C160	0.05380
C124	H16	0.03589
C125	H17	0.03589
C126	H18	0.03589
C127	H19	0.03589
C128	H20	0.03589
C129	C187	0.05380
C129	H21	0.03589
C130	C188	0.05380
C130	H22	0.03589
C131	C186	0.05380
C131	H23	0.03589
C132	C185	0.05380
C132	H24	0.03589
C133	C146	0.05380
C133	O117	0.05338
C134	C145	0.05380
C134	O118	0.05338
C135	C147	0.05380
C135	O120	0.05338
C136	C148	0.05380
C136	O119	0.05338
C137	C180	0.05380
C137	O123	0.05338
C138	C179	0.05380
C138	O124	0.05338
C139	C177	0.05380
C139	O122	0.05338
C140	C178	0.05380
C140	O121	0.05338
C141	H25	0.03589
C142	H26	0.03589
C143	H27	0.03589
C144	H28	0.03589
C145	H29	0.03589
C146	H30	0.03589
C147	H31	0.03589
C148	H32	0.03589
C149	C192	0.05380
C149	H33	0.03589
C150	C191	0.05380
C150	H34	0.03589
C151	C189	0.05380
C151	H35	0.03589
C152	C190	0.05380
C152	H36	0.03589
C153	H37	0.03589
C154	H38	0.03589
C155	H39	0.03589
C156	H40	0.03589
C157	H41	0.03589
C158	H42	0.03589
C159	H43	0.03589
C160	H44	0.03589
C161	H45	0.03589
C162	H46	0.03589
C163	H47	0.03589
C164	H48	0.03589
C165	C175	0.05380
C165	O128	0.05338
C166	C176	0.05380
C166	O127	0.05338
C167	C174	0.05380
C167	O125	0.05338
C168	C173	0.05380
C168	O126	0.05338
C169	H49	0.03589
C170	H50	0.03589
C171	H51	0.03589
C172	H52	0.03589
C173	H53	0.03589
C174	H54	0.03589
C175	H55	0.03589
C176	H56	0.03589
C177	H57	0.03589
C178	H58	0.03589
C179	H59	0.03589
C180	H60	0.03589
C181	H61	0.03589
C182	H62	0.03589
C183	H63	0.03589
C184	H64	0.03589
C185	H65	0.03589
C186	H66	0.03589
C187	H67	0.03589
C188	H68	0.03589
C189	H69	0.03589
C190	H70	0.03589
C191	H71	0.03589
C192	H72	0.03589
O105	C193	0.05343
C193	H73	0.04294
C193	H74	0.04301
C193	H75	0.04301
O106	C194	0.05343
C194	H76	0.04294
C194	H77	0.04301
C194	H78	0.04301
O107	C195	0.05343
C195	H79	0.04294
C195	H80	0.04301
C195	H81	0.04301
O108	C196	0.05343
C196	H82	0.04294
C196	H83	0.04301
C196	H84	0.04301
O109	C197	0.05343
C197	H85	0.04294
C197	H86	0.04301
C197	H87	0.04301
O110	C198	0.05343
C198	H88	0.04294
C198	H89	0.04301
C198	H90	0.04301
O111	C199	0.05343
C199	H91	0.04294
C199	H92	0.04301
C199	H93	0.04301
O112	C200	0.05343
C200	H94	0.04294
C200	H95	0.04301
C200	H96	0.04301
O113	C201	0.05343
C201	H97	0.04294
C201	H98	0.04301
C201	H99	0.04301
O114	C202	0.05343
C202	H100	0.04294
C202	H101	0.04301
C202	H102	0.04301
O115	C203	0.05343
C203	H103	0.04294
C203	H104	0.04301
C203	H105	0.04301
O116	C204	0.05343
C204	H106	0.04294
C204	H107	0.04301
C204	H108	0.04301
O117	C205	0.05343
C205	H109	0.04294
C205	H110	0.04301
C205	H111	0.04301
O118	C206	0.05343
C206	H112	0.04294
C206	H113	0.04301
C206	H114	0.04301
O119	C207	0.05343
C207	H115	0.04294
C207	H116	0.04301
C207	H117	0.04301
O120	C208	0.05343
C208	H118	0.04294
C208	H119	0.04301
C208	H120	0.04301
O121	C209	0.05343
C209	H121	0.04294
C209	H122	0.04301
C209	H123	0.04301
O122	C210	0.05343
C210	H124	0.04294
C210	H125	0.04301
C210	H126	0.04301
O123	C211	0.05343
C211	H127	0.04294
C211	H128	0.04301
C211	H129	0.04301
O124	C212	0.05343
C212	H130	0.04294
C212	H131	0.04301
C212	H132	0.04301
O125	C213	0.05343
C213	H133	0.04294
C213	H134	0.04301
C213	H135	0.04301
O126	C214	0.05343
C214	H136	0.04294
C214	H137	0.04301
C214	H138	0.04301
O127	C215	0.05343
C215	H139	0.04294
C215	H140	0.04301
C215	H141	0.04301
O128	C216	0.05343
C216	H142	0.04294
C216	H143	0.04301
C216	H144	0.04301
