data_IRMOF-1_clean_IRMOF-1_clean_aligned_CH2-CH2-CH3_IRMOF-1_clean_aligned_CH2-CH2-CH3_IRMOF-1_clean_aligned_CH2-CH2-CH3_IRMOF-1_clean_aligned_CH2-CH2-CH3_IRMOF-1_clean_aligned_CH2-CH2-CH3_IRMOF-1_clean_aligned_CH2-CH2-CH3_IRMOF-1_clean_aligned_CH2-CH2-CH3_IRMOF-1_clean_aligned_CH2-CH2-CH3_IRMOF-1_clean_aligned_CH2-CH2-CH3_IRMOF-1_clean_aligned_CH2-CH2-CH3_IRMOF-1_clean_aligned_CH2-CH2-CH3_IRMOF-1_clean_aligned_CH2-CH2-CH3_IRMOF-1_clean_aligned_CH2-CH2-CH3_IRMOF-1_clean_aligned_CH2-CH2-CH3_IRMOF-1_clean_aligned_CH2-CH2-CH3_IRMOF-1_clean_aligned_CH2-CH2-CH3_IRMOF-1_clean_aligned_CH2-CH2-CH3_IRMOF-1_clean_aligned_CH2-CH2-CH3_IRMOF-1_clean_aligned_CH2-CH2-CH3_IRMOF-1_clean_aligned_CH2-CH2-CH3_IRMOF-1_clean_aligned_CH2-CH2-CH3_IRMOF-1_clean_aligned_CH2-CH2-CH3_IRMOF-1_clean_aligned_CH2-CH2-CH3_IRMOF-1_clean_aligned_CH2-CH2-CH3_PM
_symmetry_space_group_name_H-M	'P1'
_cell_length_a	25.832000
_cell_length_b	25.832000
_cell_length_c	25.832000
_cell_angle_alpha	90.000000
_cell_angle_beta	90.000000
_cell_angle_gamma	90.000000
_symmetry_Int_Tables_number 1

loop_
_symmetry_equiv_pos_as_xyz
'x,y,z'

loop_
_atom_site_label
_atom_site_type_symbol
_atom_site_fract_x
_atom_site_fract_y
_atom_site_fract_z
Zn1	Zn	0.293380	0.206620	0.206620
Zn2	Zn	0.706620	0.793380	0.206620
Zn3	Zn	0.706620	0.206620	0.793380
Zn4	Zn	0.293380	0.793380	0.793380
Zn5	Zn	0.206620	0.293380	0.206620
Zn6	Zn	0.206620	0.706620	0.793380
Zn7	Zn	0.793380	0.706620	0.206620
Zn8	Zn	0.793380	0.293380	0.793380
Zn9	Zn	0.206620	0.206620	0.293380
Zn10	Zn	0.793380	0.206620	0.706620
Zn11	Zn	0.206620	0.793380	0.706620
Zn12	Zn	0.793380	0.793380	0.293380
Zn13	Zn	0.206620	0.293380	0.793380
Zn14	Zn	0.793380	0.706620	0.793380
Zn15	Zn	0.206620	0.706620	0.206620
Zn16	Zn	0.793380	0.293380	0.206620
Zn17	Zn	0.293380	0.206620	0.793380
Zn18	Zn	0.706620	0.206620	0.206620
Zn19	Zn	0.706620	0.793380	0.793380
Zn20	Zn	0.293380	0.793380	0.206620
Zn21	Zn	0.206620	0.206620	0.706620
Zn22	Zn	0.206620	0.793380	0.293380
Zn23	Zn	0.793380	0.206620	0.293380
Zn24	Zn	0.793380	0.793380	0.706620
Zn25	Zn	0.293380	0.706620	0.706620
Zn26	Zn	0.706620	0.293380	0.706620
Zn27	Zn	0.706620	0.706620	0.293380
Zn28	Zn	0.293380	0.293380	0.293380
Zn29	Zn	0.293380	0.706620	0.293380
Zn30	Zn	0.706620	0.706620	0.706620
Zn31	Zn	0.706620	0.293380	0.293380
Zn32	Zn	0.293380	0.293380	0.706620
O1	O	0.250000	0.250000	0.250000
O2	O	0.750000	0.750000	0.250000
O3	O	0.750000	0.250000	0.750000
O4	O	0.250000	0.750000	0.750000
O5	O	0.250000	0.250000	0.750000
O6	O	0.750000	0.750000	0.750000
O7	O	0.250000	0.750000	0.250000
O8	O	0.750000	0.250000	0.250000
O9	O	0.281870	0.218130	0.134000
O10	O	0.718130	0.781870	0.134000
O11	O	0.718130	0.218130	0.866000
O12	O	0.281870	0.781870	0.866000
O13	O	0.134000	0.281870	0.218130
O14	O	0.134000	0.718130	0.781870
O15	O	0.866000	0.718130	0.218130
O16	O	0.866000	0.281870	0.781870
O17	O	0.218130	0.134000	0.281870
O18	O	0.781870	0.134000	0.718130
O19	O	0.218130	0.866000	0.718130
O20	O	0.781870	0.866000	0.281870
O21	O	0.218130	0.281870	0.866000
O22	O	0.781870	0.718130	0.866000
O23	O	0.218130	0.718130	0.134000
O24	O	0.781870	0.281870	0.134000
O25	O	0.281870	0.134000	0.781870
O26	O	0.718130	0.134000	0.218130
O27	O	0.718130	0.866000	0.781870
O28	O	0.281870	0.866000	0.218130
O29	O	0.134000	0.218130	0.718130
O30	O	0.134000	0.781870	0.281870
O31	O	0.866000	0.218130	0.281870
O32	O	0.866000	0.781870	0.718130
O33	O	0.281870	0.718130	0.634000
O34	O	0.718130	0.281870	0.634000
O35	O	0.718130	0.718130	0.366000
O36	O	0.281870	0.281870	0.366000
O37	O	0.134000	0.781870	0.718130
O38	O	0.134000	0.218130	0.281870
O39	O	0.866000	0.218130	0.718130
O40	O	0.866000	0.781870	0.281870
O41	O	0.218130	0.634000	0.781870
O42	O	0.781870	0.634000	0.218130
O43	O	0.218130	0.366000	0.218130
O44	O	0.781870	0.366000	0.781870
O45	O	0.218130	0.781870	0.366000
O46	O	0.781870	0.218130	0.366000
O47	O	0.218130	0.218130	0.634000
O48	O	0.781870	0.781870	0.634000
O49	O	0.281870	0.634000	0.281870
O50	O	0.718130	0.634000	0.718130
O51	O	0.718130	0.366000	0.281870
O52	O	0.281870	0.366000	0.718130
O53	O	0.134000	0.718130	0.218130
O54	O	0.134000	0.281870	0.781870
O55	O	0.866000	0.718130	0.781870
O56	O	0.866000	0.281870	0.218130
O57	O	0.781870	0.218130	0.634000
O58	O	0.218130	0.781870	0.634000
O59	O	0.218130	0.218130	0.366000
O60	O	0.781870	0.781870	0.366000
O61	O	0.634000	0.281870	0.718130
O62	O	0.634000	0.718130	0.281870
O63	O	0.366000	0.718130	0.718130
O64	O	0.366000	0.281870	0.281870
O65	O	0.718130	0.134000	0.781870
O66	O	0.281870	0.134000	0.218130
O67	O	0.718130	0.866000	0.218130
O68	O	0.281870	0.866000	0.781870
O69	O	0.718130	0.281870	0.366000
O70	O	0.281870	0.718130	0.366000
O71	O	0.718130	0.718130	0.634000
O72	O	0.281870	0.281870	0.634000
O73	O	0.781870	0.134000	0.281870
O74	O	0.218130	0.134000	0.718130
O75	O	0.218130	0.866000	0.281870
O76	O	0.781870	0.866000	0.718130
O77	O	0.634000	0.218130	0.218130
O78	O	0.634000	0.781870	0.781870
O79	O	0.366000	0.218130	0.781870
O80	O	0.366000	0.781870	0.218130
O81	O	0.781870	0.718130	0.134000
O82	O	0.218130	0.281870	0.134000
O83	O	0.218130	0.718130	0.866000
O84	O	0.781870	0.281870	0.866000
O85	O	0.634000	0.781870	0.218130
O86	O	0.634000	0.218130	0.781870
O87	O	0.366000	0.218130	0.218130
O88	O	0.366000	0.781870	0.781870
O89	O	0.718130	0.634000	0.281870
O90	O	0.281870	0.634000	0.718130
O91	O	0.718130	0.366000	0.718130
O92	O	0.281870	0.366000	0.281870
O93	O	0.718130	0.781870	0.866000
O94	O	0.281870	0.218130	0.866000
O95	O	0.718130	0.218130	0.134000
O96	O	0.281870	0.781870	0.134000
O97	O	0.781870	0.634000	0.781870
O98	O	0.218130	0.634000	0.218130
O99	O	0.218130	0.366000	0.781870
O100	O	0.781870	0.366000	0.218130
O101	O	0.634000	0.718130	0.718130
O102	O	0.634000	0.281870	0.281870
O103	O	0.366000	0.718130	0.281870
O104	O	0.366000	0.281870	0.718130
C1	C	0.250000	0.250000	0.111300
C2	C	0.750000	0.750000	0.111300
C3	C	0.750000	0.250000	0.888700
C4	C	0.250000	0.750000	0.888700
C5	C	0.111300	0.250000	0.250000
C6	C	0.111300	0.750000	0.750000
C7	C	0.888700	0.750000	0.250000
C8	C	0.888700	0.250000	0.750000
C9	C	0.250000	0.111300	0.250000
C10	C	0.750000	0.111300	0.750000
C11	C	0.250000	0.888700	0.750000
C12	C	0.750000	0.888700	0.250000
C13	C	0.250000	0.250000	0.888700
C14	C	0.750000	0.750000	0.888700
C15	C	0.250000	0.750000	0.111300
C16	C	0.750000	0.250000	0.111300
C17	C	0.250000	0.111300	0.750000
C18	C	0.750000	0.111300	0.250000
C19	C	0.750000	0.888700	0.750000
C20	C	0.250000	0.888700	0.250000
C21	C	0.111300	0.250000	0.750000
C22	C	0.111300	0.750000	0.250000
C23	C	0.888700	0.250000	0.250000
C24	C	0.888700	0.750000	0.750000
C25	C	0.250000	0.750000	0.611300
C26	C	0.750000	0.250000	0.611300
C27	C	0.750000	0.750000	0.388700
C28	C	0.250000	0.250000	0.388700
C29	C	0.250000	0.611300	0.750000
C30	C	0.750000	0.611300	0.250000
C31	C	0.250000	0.388700	0.250000
C32	C	0.750000	0.388700	0.750000
C33	C	0.250000	0.750000	0.388700
C34	C	0.750000	0.250000	0.388700
C35	C	0.250000	0.250000	0.611300
C36	C	0.750000	0.750000	0.611300
C37	C	0.250000	0.611300	0.250000
C38	C	0.750000	0.611300	0.750000
C39	C	0.750000	0.388700	0.250000
C40	C	0.250000	0.388700	0.750000
C41	C	0.611300	0.250000	0.750000
C42	C	0.611300	0.750000	0.250000
C43	C	0.388700	0.750000	0.750000
C44	C	0.388700	0.250000	0.250000
C45	C	0.611300	0.250000	0.250000
C46	C	0.611300	0.750000	0.750000
C47	C	0.388700	0.250000	0.750000
C48	C	0.388700	0.750000	0.250000
C49	C	0.250000	0.250000	0.053800
C50	C	0.750000	0.750000	0.053800
C51	C	0.750000	0.250000	0.946200
C52	C	0.250000	0.750000	0.946200
C53	C	0.053800	0.250000	0.250000
C54	C	0.053800	0.750000	0.750000
C55	C	0.946200	0.750000	0.250000
C56	C	0.946200	0.250000	0.750000
C57	C	0.250000	0.053800	0.250000
C58	C	0.750000	0.053800	0.750000
C59	C	0.250000	0.946200	0.750000
C60	C	0.750000	0.946200	0.250000
C61	C	0.250000	0.250000	0.946200
C62	C	0.750000	0.750000	0.946200
C63	C	0.250000	0.750000	0.053800
C64	C	0.750000	0.250000	0.053800
C65	C	0.250000	0.053800	0.750000
C66	C	0.750000	0.053800	0.250000
C67	C	0.750000	0.946200	0.750000
C68	C	0.250000	0.946200	0.250000
C69	C	0.053800	0.250000	0.750000
C70	C	0.053800	0.750000	0.250000
C71	C	0.946200	0.250000	0.250000
C72	C	0.946200	0.750000	0.750000
C73	C	0.250000	0.750000	0.553800
C74	C	0.750000	0.250000	0.553800
C75	C	0.750000	0.750000	0.446200
C76	C	0.250000	0.250000	0.446200
C77	C	0.250000	0.553800	0.750000
C78	C	0.750000	0.553800	0.250000
C79	C	0.250000	0.446200	0.250000
C80	C	0.750000	0.446200	0.750000
C81	C	0.250000	0.750000	0.446200
C82	C	0.750000	0.250000	0.446200
C83	C	0.250000	0.250000	0.553800
C84	C	0.750000	0.750000	0.553800
C85	C	0.250000	0.553800	0.250000
C86	C	0.750000	0.553800	0.750000
C87	C	0.750000	0.446200	0.250000
C88	C	0.250000	0.446200	0.750000
C89	C	0.553800	0.250000	0.750000
C90	C	0.553800	0.750000	0.250000
C91	C	0.446200	0.750000	0.750000
C92	C	0.446200	0.250000	0.250000
C93	C	0.553800	0.250000	0.250000
C94	C	0.553800	0.750000	0.750000
C95	C	0.446200	0.250000	0.750000
C96	C	0.446200	0.750000	0.250000
C97	C	0.282900	0.217100	0.026900
C98	C	0.717100	0.782900	0.026900
C99	C	0.717100	0.217100	0.973100
C100	C	0.282900	0.782900	0.973100
C101	C	0.026900	0.282900	0.217100
C102	C	0.026900	0.717100	0.782900
C103	C	0.973100	0.717100	0.217100
C104	C	0.973100	0.282900	0.782900
C105	C	0.217100	0.026900	0.282900
C106	C	0.782900	0.026900	0.717100
C107	C	0.217100	0.973100	0.717100
C108	C	0.782900	0.973100	0.282900
C109	C	0.217100	0.282900	0.973100
C110	C	0.782900	0.717100	0.973100
C111	C	0.217100	0.717100	0.026900
C112	C	0.782900	0.282900	0.026900
C113	C	0.282900	0.026900	0.782900
C114	C	0.717100	0.026900	0.217100
C115	C	0.717100	0.973100	0.782900
C116	C	0.282900	0.973100	0.217100
C117	C	0.026900	0.217100	0.717100
C118	C	0.026900	0.782900	0.282900
C119	C	0.973100	0.217100	0.282900
C120	C	0.973100	0.782900	0.717100
C121	C	0.282900	0.717100	0.526900
C122	C	0.717100	0.282900	0.526900
C123	C	0.717100	0.717100	0.473100
C124	C	0.282900	0.282900	0.473100
C125	C	0.026900	0.782900	0.717100
C126	C	0.026900	0.217100	0.282900
C127	C	0.973100	0.217100	0.717100
C128	C	0.973100	0.782900	0.282900
C129	C	0.217100	0.526900	0.782900
C130	C	0.782900	0.526900	0.217100
C131	C	0.217100	0.473100	0.217100
C132	C	0.782900	0.473100	0.782900
C133	C	0.217100	0.782900	0.473100
C134	C	0.782900	0.217100	0.473100
C135	C	0.217100	0.217100	0.526900
C136	C	0.782900	0.782900	0.526900
C137	C	0.282900	0.526900	0.282900
C138	C	0.717100	0.526900	0.717100
C139	C	0.717100	0.473100	0.282900
C140	C	0.282900	0.473100	0.717100
C141	C	0.026900	0.717100	0.217100
C142	C	0.026900	0.282900	0.782900
C143	C	0.973100	0.717100	0.782900
C144	C	0.973100	0.282900	0.217100
C145	C	0.782900	0.217100	0.526900
C146	C	0.217100	0.782900	0.526900
C147	C	0.217100	0.217100	0.473100
C148	C	0.782900	0.782900	0.473100
C149	C	0.526900	0.282900	0.717100
C150	C	0.526900	0.717100	0.282900
C151	C	0.473100	0.717100	0.717100
C152	C	0.473100	0.282900	0.282900
C153	C	0.717100	0.026900	0.782900
C154	C	0.282900	0.026900	0.217100
C155	C	0.717100	0.973100	0.217100
C156	C	0.282900	0.973100	0.782900
C157	C	0.717100	0.282900	0.473100
C158	C	0.282900	0.717100	0.473100
C159	C	0.717100	0.717100	0.526900
C160	C	0.282900	0.282900	0.526900
C161	C	0.782900	0.026900	0.282900
C162	C	0.217100	0.026900	0.717100
C163	C	0.217100	0.973100	0.282900
C164	C	0.782900	0.973100	0.717100
C165	C	0.526900	0.217100	0.217100
C166	C	0.526900	0.782900	0.782900
C167	C	0.473100	0.217100	0.782900
C168	C	0.473100	0.782900	0.217100
C169	C	0.782900	0.717100	0.026900
C170	C	0.217100	0.282900	0.026900
C171	C	0.217100	0.717100	0.973100
C172	C	0.782900	0.282900	0.973100
C173	C	0.526900	0.782900	0.217100
C174	C	0.526900	0.217100	0.782900
C175	C	0.473100	0.217100	0.217100
C176	C	0.473100	0.782900	0.782900
C177	C	0.717100	0.526900	0.282900
C178	C	0.282900	0.526900	0.717100
C179	C	0.717100	0.473100	0.717100
C180	C	0.282900	0.473100	0.282900
C181	C	0.717100	0.782900	0.973100
C182	C	0.282900	0.217100	0.973100
C183	C	0.717100	0.217100	0.026900
C184	C	0.282900	0.782900	0.026900
C185	C	0.782900	0.526900	0.782900
C186	C	0.217100	0.526900	0.217100
C187	C	0.217100	0.473100	0.782900
C188	C	0.782900	0.473100	0.217100
C189	C	0.526900	0.717100	0.717100
C190	C	0.526900	0.282900	0.282900
C191	C	0.473100	0.717100	0.282900
C192	C	0.473100	0.282900	0.717100
H1	H	0.695100	0.804900	0.044800
H2	H	0.304900	0.804900	0.955200
H3	H	0.955200	0.695100	0.195100
H4	H	0.804900	0.044800	0.695100
H5	H	0.804900	0.955200	0.304900
H6	H	0.195100	0.304900	0.955200
H7	H	0.804900	0.695100	0.955200
H8	H	0.195100	0.695100	0.044800
H9	H	0.804900	0.304900	0.044800
H10	H	0.304900	0.044800	0.804900
H11	H	0.695100	0.044800	0.195100
H12	H	0.695100	0.955200	0.804900
H13	H	0.304900	0.955200	0.195100
H14	H	0.044800	0.195100	0.695100
H15	H	0.044800	0.804900	0.304900
H16	H	0.955200	0.195100	0.304900
H17	H	0.955200	0.804900	0.695100
H18	H	0.695100	0.695100	0.455200
H19	H	0.304900	0.304900	0.455200
H20	H	0.044800	0.804900	0.695100
H21	H	0.044800	0.195100	0.304900
H22	H	0.955200	0.195100	0.695100
H23	H	0.195100	0.544800	0.804900
H24	H	0.804900	0.544800	0.195100
H25	H	0.195100	0.455200	0.195100
H26	H	0.195100	0.804900	0.455200
H27	H	0.804900	0.195100	0.455200
H28	H	0.195100	0.195100	0.544800
H29	H	0.804900	0.804900	0.544800
H30	H	0.304900	0.544800	0.304900
H31	H	0.695100	0.544800	0.695100
H32	H	0.695100	0.455200	0.304900
H33	H	0.304900	0.455200	0.695100
H34	H	0.044800	0.695100	0.195100
H35	H	0.044800	0.304900	0.804900
H36	H	0.955200	0.695100	0.804900
H37	H	0.955200	0.304900	0.195100
H38	H	0.804900	0.195100	0.544800
H39	H	0.195100	0.804900	0.544800
H40	H	0.544800	0.304900	0.695100
H41	H	0.544800	0.695100	0.304900
H42	H	0.455200	0.695100	0.695100
H43	H	0.455200	0.304900	0.304900
H44	H	0.304900	0.044800	0.195100
H45	H	0.304900	0.955200	0.804900
H46	H	0.695100	0.304900	0.455200
H47	H	0.304900	0.695100	0.455200
H48	H	0.695100	0.695100	0.544800
H49	H	0.304900	0.304900	0.544800
H50	H	0.804900	0.044800	0.304900
H51	H	0.195100	0.044800	0.695100
H52	H	0.195100	0.955200	0.304900
H53	H	0.804900	0.955200	0.695100
H54	H	0.544800	0.195100	0.195100
H55	H	0.544800	0.804900	0.804900
H56	H	0.455200	0.195100	0.804900
H57	H	0.455200	0.804900	0.195100
H58	H	0.195100	0.304900	0.044800
H59	H	0.804900	0.304900	0.955200
H60	H	0.695100	0.455200	0.695100
H61	H	0.695100	0.804900	0.955200
H62	H	0.304900	0.195100	0.955200
H63	H	0.695100	0.195100	0.044800
H64	H	0.304900	0.804900	0.044800
H65	H	0.804900	0.544800	0.804900
H66	H	0.195100	0.544800	0.195100
H67	H	0.195100	0.455200	0.804900
H68	H	0.804900	0.455200	0.195100
H69	H	0.544800	0.695100	0.695100
H70	H	0.544800	0.304900	0.304900
H71	H	0.455200	0.695100	0.304900
H72	H	0.455200	0.304900	0.695100
C193	C	0.319520	0.180481	0.057382
C194	C	0.316729	0.183274	0.116805
H73	H	0.359980	0.189765	0.046022
H74	H	0.310236	0.140021	0.046023
C195	C	0.354622	0.145382	0.141736
H75	H	0.276996	0.173295	0.130004
H76	H	0.326708	0.223007	0.130002
H77	H	0.345381	0.105057	0.129992
H78	H	0.351784	0.148222	0.184534
H79	H	0.394946	0.154623	0.129990
C196	C	0.819519	0.680480	0.057382
C197	C	0.816726	0.683271	0.116805
H80	H	0.810235	0.640020	0.046022
H81	H	0.859979	0.689764	0.046023
C198	C	0.854618	0.645378	0.141736
H82	H	0.826705	0.723004	0.130004
H83	H	0.776993	0.673292	0.130002
H84	H	0.894943	0.654619	0.129992
H85	H	0.851778	0.648216	0.184534
H86	H	0.845377	0.605054	0.129990
C199	C	0.680481	0.180480	0.942618
C200	C	0.683274	0.183271	0.883195
H87	H	0.689765	0.140020	0.953978
H88	H	0.640021	0.189764	0.953977
C201	C	0.645382	0.145378	0.858264
H89	H	0.673295	0.223004	0.869996
H90	H	0.723007	0.173292	0.869998
H91	H	0.605057	0.154619	0.870008
H92	H	0.648222	0.148216	0.815466
H93	H	0.654623	0.105054	0.870010
C202	C	0.180480	0.680481	0.942618
C203	C	0.183271	0.683274	0.883195
H94	H	0.140020	0.689765	0.953978
H95	H	0.189764	0.640021	0.953977
C204	C	0.145378	0.645382	0.858264
H96	H	0.223004	0.673295	0.869996
H97	H	0.173292	0.723007	0.869998
H98	H	0.154619	0.605057	0.870008
H99	H	0.148216	0.648222	0.815466
H100	H	0.105054	0.654623	0.870010
C205	C	0.057382	0.319520	0.180481
C206	C	0.116805	0.316729	0.183274
H101	H	0.046022	0.359980	0.189765
H102	H	0.046023	0.310236	0.140021
C207	C	0.141736	0.354622	0.145382
H103	H	0.130004	0.276996	0.173295
H104	H	0.130002	0.326708	0.223007
H105	H	0.129992	0.345381	0.105057
H106	H	0.184534	0.351784	0.148222
H107	H	0.129990	0.394946	0.154623
C208	C	0.057382	0.680481	0.819520
C209	C	0.116805	0.683274	0.816729
H108	H	0.046022	0.689765	0.859980
H109	H	0.046023	0.640021	0.810236
C210	C	0.141736	0.645382	0.854622
H110	H	0.130004	0.673295	0.776996
H111	H	0.130002	0.723007	0.826708
H112	H	0.129992	0.605057	0.845381
H113	H	0.184534	0.648222	0.851784
H114	H	0.129990	0.654623	0.894946
C211	C	0.942618	0.819519	0.319520
C212	C	0.883195	0.816726	0.316729
H115	H	0.953978	0.810235	0.359980
H116	H	0.953977	0.859979	0.310236
C213	C	0.858264	0.854618	0.354622
H117	H	0.869996	0.826705	0.276996
H118	H	0.869998	0.776993	0.326708
H119	H	0.870008	0.894943	0.345381
H120	H	0.815466	0.851778	0.351784
H121	H	0.870010	0.845377	0.394946
C214	C	0.942618	0.319520	0.819519
C215	C	0.883195	0.316729	0.816726
H122	H	0.953978	0.359980	0.810235
H123	H	0.953977	0.310236	0.859979
C216	C	0.858264	0.354622	0.854618
H124	H	0.869996	0.276996	0.826705
H125	H	0.869998	0.326708	0.776993
H126	H	0.870008	0.345381	0.894943
H127	H	0.815466	0.351784	0.851778
H128	H	0.870010	0.394946	0.845377
C217	C	0.180481	0.057382	0.319520
C218	C	0.183274	0.116805	0.316729
H129	H	0.189765	0.046022	0.359980
H130	H	0.140021	0.046023	0.310236
C219	C	0.145382	0.141736	0.354622
H131	H	0.173295	0.130004	0.276996
H132	H	0.223007	0.130002	0.326708
H133	H	0.105057	0.129992	0.345381
H134	H	0.148222	0.184534	0.351784
H135	H	0.154623	0.129990	0.394946
C220	C	0.680480	0.057382	0.819519
C221	C	0.683271	0.116805	0.816726
H136	H	0.640020	0.046022	0.810235
H137	H	0.689764	0.046023	0.859979
C222	C	0.645378	0.141736	0.854618
H138	H	0.723004	0.130004	0.826705
H139	H	0.673292	0.130002	0.776993
H140	H	0.654619	0.129992	0.894943
H141	H	0.648216	0.184534	0.851778
H142	H	0.605054	0.129990	0.845377
C223	C	0.180480	0.942618	0.680481
C224	C	0.183271	0.883195	0.683274
H143	H	0.140020	0.953978	0.689765
H144	H	0.189764	0.953977	0.640021
C225	C	0.145378	0.858264	0.645382
H145	H	0.223004	0.869996	0.673295
H146	H	0.173292	0.869998	0.723007
H147	H	0.154619	0.870008	0.605057
H148	H	0.148216	0.815466	0.648222
H149	H	0.105054	0.870010	0.654623
C226	C	0.680480	0.942618	0.180481
C227	C	0.683271	0.883195	0.183274
H150	H	0.640020	0.953978	0.189765
H151	H	0.689764	0.953977	0.140021
C228	C	0.645378	0.858264	0.145382
H152	H	0.723004	0.869996	0.173295
H153	H	0.673292	0.869998	0.223007
H154	H	0.654619	0.870008	0.105057
H155	H	0.648216	0.815466	0.148222
H156	H	0.605054	0.870010	0.154623
C229	C	0.319519	0.680480	0.557382
C230	C	0.316726	0.683271	0.616805
H157	H	0.310235	0.640020	0.546022
H158	H	0.359979	0.689764	0.546023
C231	C	0.354618	0.645378	0.641736
H159	H	0.326705	0.723004	0.630004
H160	H	0.276993	0.673292	0.630002
H161	H	0.394943	0.654619	0.629992
H162	H	0.351778	0.648216	0.684534
H163	H	0.345377	0.605054	0.629990
C232	C	0.680481	0.319520	0.557382
C233	C	0.683274	0.316729	0.616805
H164	H	0.689765	0.359980	0.546022
H165	H	0.640021	0.310236	0.546023
C234	C	0.645382	0.354622	0.641736
H166	H	0.673295	0.276996	0.630004
H167	H	0.723007	0.326708	0.630002
H168	H	0.605057	0.345381	0.629992
H169	H	0.648222	0.351784	0.684534
H170	H	0.654623	0.394946	0.629990
C235	C	0.819519	0.819520	0.442618
C236	C	0.816726	0.816729	0.383195
H171	H	0.810235	0.859980	0.453978
H172	H	0.859979	0.810236	0.453977
C237	C	0.854618	0.854622	0.358264
H173	H	0.826705	0.776996	0.369996
H174	H	0.776993	0.826708	0.369998
H175	H	0.894943	0.845381	0.370008
H176	H	0.851778	0.851784	0.315466
H177	H	0.845377	0.894946	0.370010
C238	C	0.180481	0.180480	0.442618
C239	C	0.183274	0.183271	0.383195
H178	H	0.189765	0.140020	0.453978
H179	H	0.140021	0.189764	0.453977
C240	C	0.145382	0.145378	0.358264
H180	H	0.173295	0.223004	0.369996
H181	H	0.223007	0.173292	0.369998
H182	H	0.105057	0.154619	0.370008
H183	H	0.148222	0.148216	0.315466
H184	H	0.154623	0.105054	0.370010
C241	C	0.319520	0.557382	0.680481
C242	C	0.316729	0.616805	0.683274
H185	H	0.359980	0.546022	0.689765
H186	H	0.310236	0.546023	0.640021
C243	C	0.354622	0.641736	0.645382
H187	H	0.276996	0.630004	0.673295
H188	H	0.326708	0.630002	0.723007
H189	H	0.345381	0.629992	0.605057
H190	H	0.351784	0.684534	0.648222
H191	H	0.394946	0.629990	0.654623
C244	C	0.680480	0.557382	0.319519
C245	C	0.683271	0.616805	0.316726
H192	H	0.640020	0.546022	0.310235
H193	H	0.689764	0.546023	0.359979
C246	C	0.645378	0.641736	0.354618
H194	H	0.723004	0.630004	0.326705
H195	H	0.673292	0.630002	0.276993
H196	H	0.654619	0.629992	0.394943
H197	H	0.648216	0.684534	0.351778
H198	H	0.605054	0.629990	0.345377
C247	C	0.319520	0.442618	0.319519
C248	C	0.316729	0.383195	0.316726
H199	H	0.359980	0.453978	0.310235
H200	H	0.310236	0.453977	0.359979
C249	C	0.354622	0.358264	0.354618
H201	H	0.276996	0.369996	0.326705
H202	H	0.326708	0.369998	0.276993
H203	H	0.345381	0.370008	0.394943
H204	H	0.351784	0.315466	0.351778
H205	H	0.394946	0.370010	0.345377
C250	C	0.819520	0.442618	0.819519
C251	C	0.816729	0.383195	0.816726
H206	H	0.859980	0.453978	0.810235
H207	H	0.810236	0.453977	0.859979
C252	C	0.854622	0.358264	0.854618
H208	H	0.776996	0.369996	0.826705
H209	H	0.826708	0.369998	0.776993
H210	H	0.845381	0.370008	0.894943
H211	H	0.851784	0.315466	0.851778
H212	H	0.894946	0.370010	0.845377
C253	C	0.557382	0.180480	0.819519
C254	C	0.616805	0.183271	0.816726
H213	H	0.546022	0.140020	0.810235
H214	H	0.546023	0.189764	0.859979
C255	C	0.641736	0.145378	0.854618
H215	H	0.630004	0.223004	0.826705
H216	H	0.630002	0.173292	0.776993
H217	H	0.629992	0.154619	0.894943
H218	H	0.684534	0.148216	0.851778
H219	H	0.629990	0.105054	0.845377
C256	C	0.557382	0.819519	0.180480
C257	C	0.616805	0.816726	0.183271
H220	H	0.546022	0.810235	0.140020
H221	H	0.546023	0.859979	0.189764
C258	C	0.641736	0.854618	0.145378
H222	H	0.630004	0.826705	0.223004
H223	H	0.630002	0.776993	0.173292
H224	H	0.629992	0.894943	0.154619
H225	H	0.684534	0.851778	0.148216
H226	H	0.629990	0.845377	0.105054
C259	C	0.442618	0.819519	0.819520
C260	C	0.383195	0.816726	0.816729
H227	H	0.453978	0.810235	0.859980
H228	H	0.453977	0.859979	0.810236
C261	C	0.358264	0.854618	0.854622
H229	H	0.369996	0.826705	0.776996
H230	H	0.369998	0.776993	0.826708
H231	H	0.370008	0.894943	0.845381
H232	H	0.315466	0.851778	0.851784
H233	H	0.370010	0.845377	0.894946
C262	C	0.442618	0.180481	0.180480
C263	C	0.383195	0.183274	0.183271
H234	H	0.453978	0.189765	0.140020
H235	H	0.453977	0.140021	0.189764
C264	C	0.358264	0.145382	0.145378
H236	H	0.369996	0.173295	0.223004
H237	H	0.369998	0.223007	0.173292
H238	H	0.370008	0.105057	0.154619
H239	H	0.315466	0.148222	0.148216
H240	H	0.370010	0.154623	0.105054

loop_
_geom_bond_atom_site_label_1
_geom_bond_atom_site_label_2
_geom_bond_distance
Zn1	O1	0.07514
Zn1	O9	0.07442
Zn1	O66	0.07442
Zn1	O87	0.07442
Zn2	O2	0.07514
Zn2	O10	0.07442
Zn2	O67	0.07442
Zn2	O85	0.07442
Zn3	O3	0.07514
Zn3	O11	0.07442
Zn3	O65	0.07442
Zn3	O86	0.07442
Zn4	O4	0.07514
Zn4	O12	0.07442
Zn4	O68	0.07442
Zn4	O88	0.07442
Zn5	O1	0.07514
Zn5	O13	0.07442
Zn5	O43	0.07442
Zn5	O82	0.07442
Zn6	O4	0.07514
Zn6	O14	0.07442
Zn6	O41	0.07442
Zn6	O83	0.07442
Zn7	O2	0.07514
Zn7	O15	0.07442
Zn7	O42	0.07442
Zn7	O81	0.07442
Zn8	O3	0.07514
Zn8	O16	0.07442
Zn8	O44	0.07442
Zn8	O84	0.07442
Zn9	O1	0.07514
Zn9	O17	0.07442
Zn9	O38	0.07442
Zn9	O59	0.07442
Zn10	O3	0.07514
Zn10	O18	0.07442
Zn10	O39	0.07442
Zn10	O57	0.07442
Zn11	O4	0.07514
Zn11	O19	0.07442
Zn11	O37	0.07442
Zn11	O58	0.07442
Zn12	O2	0.07514
Zn12	O20	0.07442
Zn12	O40	0.07442
Zn12	O60	0.07442
Zn13	O5	0.07514
Zn13	O21	0.07442
Zn13	O54	0.07442
Zn13	O99	0.07442
Zn14	O6	0.07514
Zn14	O22	0.07442
Zn14	O55	0.07442
Zn14	O97	0.07442
Zn15	O7	0.07514
Zn15	O23	0.07442
Zn15	O53	0.07442
Zn15	O98	0.07442
Zn16	O8	0.07514
Zn16	O24	0.07442
Zn16	O56	0.07442
Zn16	O100	0.07442
Zn17	O5	0.07514
Zn17	O25	0.07442
Zn17	O79	0.07442
Zn17	O94	0.07442
Zn18	O8	0.07514
Zn18	O26	0.07442
Zn18	O77	0.07442
Zn18	O95	0.07442
Zn19	O6	0.07514
Zn19	O27	0.07442
Zn19	O78	0.07442
Zn19	O93	0.07442
Zn20	O7	0.07514
Zn20	O28	0.07442
Zn20	O80	0.07442
Zn20	O96	0.07442
Zn21	O5	0.07514
Zn21	O29	0.07442
Zn21	O47	0.07442
Zn21	O74	0.07442
Zn22	O7	0.07514
Zn22	O30	0.07442
Zn22	O45	0.07442
Zn22	O75	0.07442
Zn23	O8	0.07514
Zn23	O31	0.07442
Zn23	O46	0.07442
Zn23	O73	0.07442
Zn24	O6	0.07514
Zn24	O32	0.07442
Zn24	O48	0.07442
Zn24	O76	0.07442
Zn25	O4	0.07514
Zn25	O33	0.07442
Zn25	O63	0.07442
Zn25	O90	0.07442
Zn26	O3	0.07514
Zn26	O34	0.07442
Zn26	O61	0.07442
Zn26	O91	0.07442
Zn27	O2	0.07514
Zn27	O35	0.07442
Zn27	O62	0.07442
Zn27	O89	0.07442
Zn28	O1	0.07514
Zn28	O36	0.07442
Zn28	O64	0.07442
Zn28	O92	0.07442
Zn29	O7	0.07514
Zn29	O49	0.07442
Zn29	O70	0.07442
Zn29	O103	0.07442
Zn30	O6	0.07514
Zn30	O50	0.07442
Zn30	O71	0.07442
Zn30	O101	0.07442
Zn31	O8	0.07514
Zn31	O51	0.07442
Zn31	O69	0.07442
Zn31	O102	0.07442
Zn32	O5	0.07514
Zn32	O52	0.07442
Zn32	O72	0.07442
Zn32	O104	0.07442
O9	C1	0.05046
O10	C2	0.05046
O11	C3	0.05046
O12	C4	0.05046
O13	C5	0.05046
O14	C6	0.05046
O15	C7	0.05046
O16	C8	0.05046
O17	C9	0.05046
O18	C10	0.05046
O19	C11	0.05046
O20	C12	0.05046
O21	C13	0.05046
O22	C14	0.05046
O23	C15	0.05046
O24	C16	0.05046
O25	C17	0.05046
O26	C18	0.05046
O27	C19	0.05046
O28	C20	0.05046
O29	C21	0.05046
O30	C22	0.05046
O31	C23	0.05046
O32	C24	0.05046
O33	C25	0.05046
O34	C26	0.05046
O35	C27	0.05046
O36	C28	0.05046
O37	C6	0.05046
O38	C5	0.05046
O39	C8	0.05046
O40	C7	0.05046
O41	C29	0.05046
O42	C30	0.05046
O43	C31	0.05046
O44	C32	0.05046
O45	C33	0.05046
O46	C34	0.05046
O47	C35	0.05046
O48	C36	0.05046
O49	C37	0.05046
O50	C38	0.05046
O51	C39	0.05046
O52	C40	0.05046
O53	C22	0.05046
O54	C21	0.05046
O55	C24	0.05046
O56	C23	0.05046
O57	C26	0.05046
O58	C25	0.05046
O59	C28	0.05046
O60	C27	0.05046
O61	C41	0.05046
O62	C42	0.05046
O63	C43	0.05046
O64	C44	0.05046
O65	C10	0.05046
O66	C9	0.05046
O67	C12	0.05046
O68	C11	0.05046
O69	C34	0.05046
O70	C33	0.05046
O71	C36	0.05046
O72	C35	0.05046
O73	C18	0.05046
O74	C17	0.05046
O75	C20	0.05046
O76	C19	0.05046
O77	C45	0.05046
O78	C46	0.05046
O79	C47	0.05046
O80	C48	0.05046
O81	C2	0.05046
O82	C1	0.05046
O83	C4	0.05046
O84	C3	0.05046
O85	C42	0.05046
O86	C41	0.05046
O87	C44	0.05046
O88	C43	0.05046
O89	C30	0.05046
O90	C29	0.05046
O91	C32	0.05046
O92	C31	0.05046
O93	C14	0.05046
O94	C13	0.05046
O95	C16	0.05046
O96	C15	0.05046
O97	C38	0.05046
O98	C37	0.05046
O99	C40	0.05046
O100	C39	0.05046
O101	C46	0.05046
O102	C45	0.05046
O103	C48	0.05046
O104	C47	0.05046
C1	C49	0.05750
C2	C50	0.05750
C3	C51	0.05750
C4	C52	0.05750
C5	C53	0.05750
C6	C54	0.05750
C7	C55	0.05750
C8	C56	0.05750
C9	C57	0.05750
C10	C58	0.05750
C11	C59	0.05750
C12	C60	0.05750
C13	C61	0.05750
C14	C62	0.05750
C15	C63	0.05750
C16	C64	0.05750
C17	C65	0.05750
C18	C66	0.05750
C19	C67	0.05750
C20	C68	0.05750
C21	C69	0.05750
C22	C70	0.05750
C23	C71	0.05750
C24	C72	0.05750
C25	C73	0.05750
C26	C74	0.05750
C27	C75	0.05750
C28	C76	0.05750
C29	C77	0.05750
C30	C78	0.05750
C31	C79	0.05750
C32	C80	0.05750
C33	C81	0.05750
C34	C82	0.05750
C35	C83	0.05750
C36	C84	0.05750
C37	C85	0.05750
C38	C86	0.05750
C39	C87	0.05750
C40	C88	0.05750
C41	C89	0.05750
C42	C90	0.05750
C43	C91	0.05750
C44	C92	0.05750
C45	C93	0.05750
C46	C94	0.05750
C47	C95	0.05750
C48	C96	0.05750
C49	C97	0.05374
C49	C170	0.05374
C50	C98	0.05374
C50	C169	0.05374
C51	C99	0.05374
C51	C172	0.05374
C52	C100	0.05374
C52	C171	0.05374
C53	C101	0.05374
C53	C126	0.05374
C54	C102	0.05374
C54	C125	0.05374
C55	C103	0.05374
C55	C128	0.05374
C56	C104	0.05374
C56	C127	0.05374
C57	C105	0.05374
C57	C154	0.05374
C58	C106	0.05374
C58	C153	0.05374
C59	C107	0.05374
C59	C156	0.05374
C60	C108	0.05374
C60	C155	0.05374
C61	C109	0.05374
C61	C182	0.05374
C62	C110	0.05374
C62	C181	0.05374
C63	C111	0.05374
C63	C184	0.05374
C64	C112	0.05374
C64	C183	0.05374
C65	C113	0.05374
C65	C162	0.05374
C66	C114	0.05374
C66	C161	0.05374
C67	C115	0.05374
C67	C164	0.05374
C68	C116	0.05374
C68	C163	0.05374
C69	C117	0.05374
C69	C142	0.05374
C70	C118	0.05374
C70	C141	0.05374
C71	C119	0.05374
C71	C144	0.05374
C72	C120	0.05374
C72	C143	0.05374
C73	C121	0.05374
C73	C146	0.05374
C74	C122	0.05374
C74	C145	0.05374
C75	C123	0.05374
C75	C148	0.05374
C76	C124	0.05374
C76	C147	0.05374
C77	C129	0.05374
C77	C178	0.05374
C78	C130	0.05374
C78	C177	0.05374
C79	C131	0.05374
C79	C180	0.05374
C80	C132	0.05374
C80	C179	0.05374
C81	C133	0.05374
C81	C158	0.05374
C82	C134	0.05374
C82	C157	0.05374
C83	C135	0.05374
C83	C160	0.05374
C84	C136	0.05374
C84	C159	0.05374
C85	C137	0.05374
C85	C186	0.05374
C86	C138	0.05374
C86	C185	0.05374
C87	C139	0.05374
C87	C188	0.05374
C88	C140	0.05374
C88	C187	0.05374
C89	C149	0.05374
C89	C174	0.05374
C90	C150	0.05374
C90	C173	0.05374
C91	C151	0.05374
C91	C176	0.05374
C92	C152	0.05374
C92	C175	0.05374
C93	C165	0.05374
C93	C190	0.05374
C94	C166	0.05374
C94	C189	0.05374
C95	C167	0.05374
C95	C192	0.05374
C96	C168	0.05374
C96	C191	0.05374
C97	C182	0.05380
C97	C193	0.06009
C98	C181	0.05380
C98	H1	0.03589
C99	C183	0.05380
C99	C199	0.06009
C100	C184	0.05380
C100	H2	0.03589
C101	C144	0.05380
C101	C205	0.06009
C102	C143	0.05380
C102	C208	0.06009
C103	C141	0.05380
C103	H3	0.03589
C104	C142	0.05380
C104	C214	0.06009
C105	C163	0.05380
C105	C217	0.06009
C106	C164	0.05380
C106	H4	0.03589
C107	C162	0.05380
C107	C223	0.06009
C108	C161	0.05380
C108	H5	0.03589
C109	C170	0.05380
C109	H6	0.03589
C110	C169	0.05380
C110	H7	0.03589
C111	C171	0.05380
C111	H8	0.03589
C112	C172	0.05380
C112	H9	0.03589
C113	C156	0.05380
C113	H10	0.03589
C114	C155	0.05380
C114	H11	0.03589
C115	C153	0.05380
C115	H12	0.03589
C116	C154	0.05380
C116	H13	0.03589
C117	C127	0.05380
C117	H14	0.03589
C118	C128	0.05380
C118	H15	0.03589
C119	C126	0.05380
C119	H16	0.03589
C120	C125	0.05380
C120	H17	0.03589
C121	C158	0.05380
C121	C229	0.06009
C122	C157	0.05380
C122	C232	0.06009
C123	C159	0.05380
C123	H18	0.03589
C124	C160	0.05380
C124	H19	0.03589
C125	H20	0.03589
C126	H21	0.03589
C127	H22	0.03589
C128	C211	0.06009
C129	C187	0.05380
C129	H23	0.03589
C130	C188	0.05380
C130	H24	0.03589
C131	C186	0.05380
C131	H25	0.03589
C132	C185	0.05380
C132	C250	0.06009
C133	C146	0.05380
C133	H26	0.03589
C134	C145	0.05380
C134	H27	0.03589
C135	C147	0.05380
C135	H28	0.03589
C136	C148	0.05380
C136	H29	0.03589
C137	C180	0.05380
C137	H30	0.03589
C138	C179	0.05380
C138	H31	0.03589
C139	C177	0.05380
C139	H32	0.03589
C140	C178	0.05380
C140	H33	0.03589
C141	H34	0.03589
C142	H35	0.03589
C143	H36	0.03589
C144	H37	0.03589
C145	H38	0.03589
C146	H39	0.03589
C147	C238	0.06009
C148	C235	0.06009
C149	C192	0.05380
C149	H40	0.03589
C150	C191	0.05380
C150	H41	0.03589
C151	C189	0.05380
C151	H42	0.03589
C152	C190	0.05380
C152	H43	0.03589
C153	C220	0.06009
C154	H44	0.03589
C155	C226	0.06009
C156	H45	0.03589
C157	H46	0.03589
C158	H47	0.03589
C159	H48	0.03589
C160	H49	0.03589
C161	H50	0.03589
C162	H51	0.03589
C163	H52	0.03589
C164	H53	0.03589
C165	C175	0.05380
C165	H54	0.03589
C166	C176	0.05380
C166	H55	0.03589
C167	C174	0.05380
C167	H56	0.03589
C168	C173	0.05380
C168	H57	0.03589
C169	C196	0.06009
C170	H58	0.03589
C171	C202	0.06009
C172	H59	0.03589
C173	C256	0.06009
C174	C253	0.06009
C175	C262	0.06009
C176	C259	0.06009
C177	C244	0.06009
C178	C241	0.06009
C179	H60	0.03589
C180	C247	0.06009
C181	H61	0.03589
C182	H62	0.03589
C183	H63	0.03589
C184	H64	0.03589
C185	H65	0.03589
C186	H66	0.03589
C187	H67	0.03589
C188	H68	0.03589
C189	H69	0.03589
C190	H70	0.03589
C191	H71	0.03589
C192	H72	0.03589
C193	C194	0.05955
C193	H73	0.04304
C193	H74	0.04304
C194	C195	0.05910
C194	H75	0.04304
C194	H76	0.04304
C195	H77	0.04300
C195	H78	0.04299
C195	H79	0.04300
C196	C197	0.05955
C196	H80	0.04304
C196	H81	0.04304
C197	C198	0.05910
C197	H82	0.04304
C197	H83	0.04304
C198	H84	0.04300
C198	H85	0.04299
C198	H86	0.04300
C199	C200	0.05955
C199	H87	0.04304
C199	H88	0.04304
C200	C201	0.05910
C200	H89	0.04304
C200	H90	0.04304
C201	H91	0.04300
C201	H92	0.04299
C201	H93	0.04300
C202	C203	0.05955
C202	H94	0.04304
C202	H95	0.04304
C203	C204	0.05910
C203	H96	0.04304
C203	H97	0.04304
C204	H98	0.04300
C204	H99	0.04299
C204	H100	0.04300
C205	C206	0.05955
C205	H101	0.04304
C205	H102	0.04304
C206	C207	0.05910
C206	H103	0.04304
C206	H104	0.04304
C207	H105	0.04300
C207	H106	0.04299
C207	H107	0.04300
C208	C209	0.05955
C208	H108	0.04304
C208	H109	0.04304
C209	C210	0.05910
C209	H110	0.04304
C209	H111	0.04304
C210	H112	0.04300
C210	H113	0.04299
C210	H114	0.04300
C211	C212	0.05955
C211	H115	0.04304
C211	H116	0.04304
C212	C213	0.05910
C212	H117	0.04304
C212	H118	0.04304
C213	H119	0.04300
C213	H120	0.04299
C213	H121	0.04300
C214	C215	0.05955
C214	H122	0.04304
C214	H123	0.04304
C215	C216	0.05910
C215	H124	0.04304
C215	H125	0.04304
C216	H126	0.04300
C216	H127	0.04299
C216	H128	0.04300
C217	C218	0.05955
C217	H129	0.04304
C217	H130	0.04304
C218	C219	0.05910
C218	H131	0.04304
C218	H132	0.04304
C219	H133	0.04300
C219	H134	0.04299
C219	H135	0.04300
C220	C221	0.05955
C220	H136	0.04304
C220	H137	0.04304
C221	C222	0.05910
C221	H138	0.04304
C221	H139	0.04304
C222	H140	0.04300
C222	H141	0.04299
C222	H142	0.04300
C223	C224	0.05955
C223	H143	0.04304
C223	H144	0.04304
C224	C225	0.05910
C224	H145	0.04304
C224	H146	0.04304
C225	H147	0.04300
C225	H148	0.04299
C225	H149	0.04300
C226	C227	0.05955
C226	H150	0.04304
C226	H151	0.04304
C227	C228	0.05910
C227	H152	0.04304
C227	H153	0.04304
C228	H154	0.04300
C228	H155	0.04299
C228	H156	0.04300
C229	C230	0.05955
C229	H157	0.04304
C229	H158	0.04304
C230	C231	0.05910
C230	H159	0.04304
C230	H160	0.04304
C231	H161	0.04300
C231	H162	0.04299
C231	H163	0.04300
C232	C233	0.05955
C232	H164	0.04304
C232	H165	0.04304
C233	C234	0.05910
C233	H166	0.04304
C233	H167	0.04304
C234	H168	0.04300
C234	H169	0.04299
C234	H170	0.04300
C235	C236	0.05955
C235	H171	0.04304
C235	H172	0.04304
C236	C237	0.05910
C236	H173	0.04304
C236	H174	0.04304
C237	H175	0.04300
C237	H176	0.04299
C237	H177	0.04300
C238	C239	0.05955
C238	H178	0.04304
C238	H179	0.04304
C239	C240	0.05910
C239	H180	0.04304
C239	H181	0.04304
C240	H182	0.04300
C240	H183	0.04299
C240	H184	0.04300
C241	C242	0.05955
C241	H185	0.04304
C241	H186	0.04304
C242	C243	0.05910
C242	H187	0.04304
C242	H188	0.04304
C243	H189	0.04300
C243	H190	0.04299
C243	H191	0.04300
C244	C245	0.05955
C244	H192	0.04304
C244	H193	0.04304
C245	C246	0.05910
C245	H194	0.04304
C245	H195	0.04304
C246	H196	0.04300
C246	H197	0.04299
C246	H198	0.04300
C247	C248	0.05955
C247	H199	0.04304
C247	H200	0.04304
C248	C249	0.05910
C248	H201	0.04304
C248	H202	0.04304
C249	H203	0.04300
C249	H204	0.04299
C249	H205	0.04300
C250	C251	0.05955
C250	H206	0.04304
C250	H207	0.04304
C251	C252	0.05910
C251	H208	0.04304
C251	H209	0.04304
C252	H210	0.04300
C252	H211	0.04299
C252	H212	0.04300
C253	C254	0.05955
C253	H213	0.04304
C253	H214	0.04304
C254	C255	0.05910
C254	H215	0.04304
C254	H216	0.04304
C255	H217	0.04300
C255	H218	0.04299
C255	H219	0.04300
C256	C257	0.05955
C256	H220	0.04304
C256	H221	0.04304
C257	C258	0.05910
C257	H222	0.04304
C257	H223	0.04304
C258	H224	0.04300
C258	H225	0.04299
C258	H226	0.04300
C259	C260	0.05955
C259	H227	0.04304
C259	H228	0.04304
C260	C261	0.05910
C260	H229	0.04304
C260	H230	0.04304
C261	H231	0.04300
C261	H232	0.04299
C261	H233	0.04300
C262	C263	0.05955
C262	H234	0.04304
C262	H235	0.04304
C263	C264	0.05910
C263	H236	0.04304
C263	H237	0.04304
C264	H238	0.04300
C264	H239	0.04299
C264	H240	0.04300
