data_IRMOF-1_clean_IRMOF-1_clean_aligned_O-CH2-CH3_IRMOF-1_clean_aligned_O-CH2-CH3_IRMOF-1_clean_aligned_O-CH2-CH3_IRMOF-1_clean_aligned_O-CH2-CH3_IRMOF-1_clean_aligned_O-CH2-CH3_IRMOF-1_clean_aligned_O-CH2-CH3_IRMOF-1_clean_aligned_O-CH2-CH3_IRMOF-1_clean_aligned_O-CH2-CH3_IRMOF-1_clean_aligned_O-CH2-CH3_IRMOF-1_clean_aligned_O-CH2-CH3_IRMOF-1_clean_aligned_O-CH2-CH3_IRMOF-1_clean_aligned_O-CH2-CH3_IRMOF-1_clean_aligned_O-CH2-CH3_IRMOF-1_clean_aligned_O-CH2-CH3_IRMOF-1_clean_aligned_O-CH2-CH3_IRMOF-1_clean_aligned_O-CH2-CH3_IRMOF-1_clean_aligned_O-CH2-CH3_IRMOF-1_clean_aligned_O-CH2-CH3_IRMOF-1_clean_aligned_O-CH2-CH3_IRMOF-1_clean_aligned_O-CH2-CH3_IRMOF-1_clean_aligned_O-CH2-CH3_IRMOF-1_clean_aligned_O-CH2-CH3_IRMOF-1_clean_aligned_O-CH2-CH3_IRMOF-1_clean_aligned_O-CH2-CH3_PM
_symmetry_space_group_name_H-M	'P1'
_cell_length_a	25.832000
_cell_length_b	25.832000
_cell_length_c	25.832000
_cell_angle_alpha	90.000000
_cell_angle_beta	90.000000
_cell_angle_gamma	90.000000
_symmetry_Int_Tables_number 1

loop_
_symmetry_equiv_pos_as_xyz
'x,y,z'

loop_
_atom_site_label
_atom_site_type_symbol
_atom_site_fract_x
_atom_site_fract_y
_atom_site_fract_z
Zn1	Zn	0.293380	0.206620	0.206620
Zn2	Zn	0.706620	0.793380	0.206620
Zn3	Zn	0.706620	0.206620	0.793380
Zn4	Zn	0.293380	0.793380	0.793380
Zn5	Zn	0.206620	0.293380	0.206620
Zn6	Zn	0.206620	0.706620	0.793380
Zn7	Zn	0.793380	0.706620	0.206620
Zn8	Zn	0.793380	0.293380	0.793380
Zn9	Zn	0.206620	0.206620	0.293380
Zn10	Zn	0.793380	0.206620	0.706620
Zn11	Zn	0.206620	0.793380	0.706620
Zn12	Zn	0.793380	0.793380	0.293380
Zn13	Zn	0.206620	0.293380	0.793380
Zn14	Zn	0.793380	0.706620	0.793380
Zn15	Zn	0.206620	0.706620	0.206620
Zn16	Zn	0.793380	0.293380	0.206620
Zn17	Zn	0.293380	0.206620	0.793380
Zn18	Zn	0.706620	0.206620	0.206620
Zn19	Zn	0.706620	0.793380	0.793380
Zn20	Zn	0.293380	0.793380	0.206620
Zn21	Zn	0.206620	0.206620	0.706620
Zn22	Zn	0.206620	0.793380	0.293380
Zn23	Zn	0.793380	0.206620	0.293380
Zn24	Zn	0.793380	0.793380	0.706620
Zn25	Zn	0.293380	0.706620	0.706620
Zn26	Zn	0.706620	0.293380	0.706620
Zn27	Zn	0.706620	0.706620	0.293380
Zn28	Zn	0.293380	0.293380	0.293380
Zn29	Zn	0.293380	0.706620	0.293380
Zn30	Zn	0.706620	0.706620	0.706620
Zn31	Zn	0.706620	0.293380	0.293380
Zn32	Zn	0.293380	0.293380	0.706620
O1	O	0.250000	0.250000	0.250000
O2	O	0.750000	0.750000	0.250000
O3	O	0.750000	0.250000	0.750000
O4	O	0.250000	0.750000	0.750000
O5	O	0.250000	0.250000	0.750000
O6	O	0.750000	0.750000	0.750000
O7	O	0.250000	0.750000	0.250000
O8	O	0.750000	0.250000	0.250000
O9	O	0.281870	0.218130	0.134000
O10	O	0.718130	0.781870	0.134000
O11	O	0.718130	0.218130	0.866000
O12	O	0.281870	0.781870	0.866000
O13	O	0.134000	0.281870	0.218130
O14	O	0.134000	0.718130	0.781870
O15	O	0.866000	0.718130	0.218130
O16	O	0.866000	0.281870	0.781870
O17	O	0.218130	0.134000	0.281870
O18	O	0.781870	0.134000	0.718130
O19	O	0.218130	0.866000	0.718130
O20	O	0.781870	0.866000	0.281870
O21	O	0.218130	0.281870	0.866000
O22	O	0.781870	0.718130	0.866000
O23	O	0.218130	0.718130	0.134000
O24	O	0.781870	0.281870	0.134000
O25	O	0.281870	0.134000	0.781870
O26	O	0.718130	0.134000	0.218130
O27	O	0.718130	0.866000	0.781870
O28	O	0.281870	0.866000	0.218130
O29	O	0.134000	0.218130	0.718130
O30	O	0.134000	0.781870	0.281870
O31	O	0.866000	0.218130	0.281870
O32	O	0.866000	0.781870	0.718130
O33	O	0.281870	0.718130	0.634000
O34	O	0.718130	0.281870	0.634000
O35	O	0.718130	0.718130	0.366000
O36	O	0.281870	0.281870	0.366000
O37	O	0.134000	0.781870	0.718130
O38	O	0.134000	0.218130	0.281870
O39	O	0.866000	0.218130	0.718130
O40	O	0.866000	0.781870	0.281870
O41	O	0.218130	0.634000	0.781870
O42	O	0.781870	0.634000	0.218130
O43	O	0.218130	0.366000	0.218130
O44	O	0.781870	0.366000	0.781870
O45	O	0.218130	0.781870	0.366000
O46	O	0.781870	0.218130	0.366000
O47	O	0.218130	0.218130	0.634000
O48	O	0.781870	0.781870	0.634000
O49	O	0.281870	0.634000	0.281870
O50	O	0.718130	0.634000	0.718130
O51	O	0.718130	0.366000	0.281870
O52	O	0.281870	0.366000	0.718130
O53	O	0.134000	0.718130	0.218130
O54	O	0.134000	0.281870	0.781870
O55	O	0.866000	0.718130	0.781870
O56	O	0.866000	0.281870	0.218130
O57	O	0.781870	0.218130	0.634000
O58	O	0.218130	0.781870	0.634000
O59	O	0.218130	0.218130	0.366000
O60	O	0.781870	0.781870	0.366000
O61	O	0.634000	0.281870	0.718130
O62	O	0.634000	0.718130	0.281870
O63	O	0.366000	0.718130	0.718130
O64	O	0.366000	0.281870	0.281870
O65	O	0.718130	0.134000	0.781870
O66	O	0.281870	0.134000	0.218130
O67	O	0.718130	0.866000	0.218130
O68	O	0.281870	0.866000	0.781870
O69	O	0.718130	0.281870	0.366000
O70	O	0.281870	0.718130	0.366000
O71	O	0.718130	0.718130	0.634000
O72	O	0.281870	0.281870	0.634000
O73	O	0.781870	0.134000	0.281870
O74	O	0.218130	0.134000	0.718130
O75	O	0.218130	0.866000	0.281870
O76	O	0.781870	0.866000	0.718130
O77	O	0.634000	0.218130	0.218130
O78	O	0.634000	0.781870	0.781870
O79	O	0.366000	0.218130	0.781870
O80	O	0.366000	0.781870	0.218130
O81	O	0.781870	0.718130	0.134000
O82	O	0.218130	0.281870	0.134000
O83	O	0.218130	0.718130	0.866000
O84	O	0.781870	0.281870	0.866000
O85	O	0.634000	0.781870	0.218130
O86	O	0.634000	0.218130	0.781870
O87	O	0.366000	0.218130	0.218130
O88	O	0.366000	0.781870	0.781870
O89	O	0.718130	0.634000	0.281870
O90	O	0.281870	0.634000	0.718130
O91	O	0.718130	0.366000	0.718130
O92	O	0.281870	0.366000	0.281870
O93	O	0.718130	0.781870	0.866000
O94	O	0.281870	0.218130	0.866000
O95	O	0.718130	0.218130	0.134000
O96	O	0.281870	0.781870	0.134000
O97	O	0.781870	0.634000	0.781870
O98	O	0.218130	0.634000	0.218130
O99	O	0.218130	0.366000	0.781870
O100	O	0.781870	0.366000	0.218130
O101	O	0.634000	0.718130	0.718130
O102	O	0.634000	0.281870	0.281870
O103	O	0.366000	0.718130	0.281870
O104	O	0.366000	0.281870	0.718130
C1	C	0.250000	0.250000	0.111300
C2	C	0.750000	0.750000	0.111300
C3	C	0.750000	0.250000	0.888700
C4	C	0.250000	0.750000	0.888700
C5	C	0.111300	0.250000	0.250000
C6	C	0.111300	0.750000	0.750000
C7	C	0.888700	0.750000	0.250000
C8	C	0.888700	0.250000	0.750000
C9	C	0.250000	0.111300	0.250000
C10	C	0.750000	0.111300	0.750000
C11	C	0.250000	0.888700	0.750000
C12	C	0.750000	0.888700	0.250000
C13	C	0.250000	0.250000	0.888700
C14	C	0.750000	0.750000	0.888700
C15	C	0.250000	0.750000	0.111300
C16	C	0.750000	0.250000	0.111300
C17	C	0.250000	0.111300	0.750000
C18	C	0.750000	0.111300	0.250000
C19	C	0.750000	0.888700	0.750000
C20	C	0.250000	0.888700	0.250000
C21	C	0.111300	0.250000	0.750000
C22	C	0.111300	0.750000	0.250000
C23	C	0.888700	0.250000	0.250000
C24	C	0.888700	0.750000	0.750000
C25	C	0.250000	0.750000	0.611300
C26	C	0.750000	0.250000	0.611300
C27	C	0.750000	0.750000	0.388700
C28	C	0.250000	0.250000	0.388700
C29	C	0.250000	0.611300	0.750000
C30	C	0.750000	0.611300	0.250000
C31	C	0.250000	0.388700	0.250000
C32	C	0.750000	0.388700	0.750000
C33	C	0.250000	0.750000	0.388700
C34	C	0.750000	0.250000	0.388700
C35	C	0.250000	0.250000	0.611300
C36	C	0.750000	0.750000	0.611300
C37	C	0.250000	0.611300	0.250000
C38	C	0.750000	0.611300	0.750000
C39	C	0.750000	0.388700	0.250000
C40	C	0.250000	0.388700	0.750000
C41	C	0.611300	0.250000	0.750000
C42	C	0.611300	0.750000	0.250000
C43	C	0.388700	0.750000	0.750000
C44	C	0.388700	0.250000	0.250000
C45	C	0.611300	0.250000	0.250000
C46	C	0.611300	0.750000	0.750000
C47	C	0.388700	0.250000	0.750000
C48	C	0.388700	0.750000	0.250000
C49	C	0.250000	0.250000	0.053800
C50	C	0.750000	0.750000	0.053800
C51	C	0.750000	0.250000	0.946200
C52	C	0.250000	0.750000	0.946200
C53	C	0.053800	0.250000	0.250000
C54	C	0.053800	0.750000	0.750000
C55	C	0.946200	0.750000	0.250000
C56	C	0.946200	0.250000	0.750000
C57	C	0.250000	0.053800	0.250000
C58	C	0.750000	0.053800	0.750000
C59	C	0.250000	0.946200	0.750000
C60	C	0.750000	0.946200	0.250000
C61	C	0.250000	0.250000	0.946200
C62	C	0.750000	0.750000	0.946200
C63	C	0.250000	0.750000	0.053800
C64	C	0.750000	0.250000	0.053800
C65	C	0.250000	0.053800	0.750000
C66	C	0.750000	0.053800	0.250000
C67	C	0.750000	0.946200	0.750000
C68	C	0.250000	0.946200	0.250000
C69	C	0.053800	0.250000	0.750000
C70	C	0.053800	0.750000	0.250000
C71	C	0.946200	0.250000	0.250000
C72	C	0.946200	0.750000	0.750000
C73	C	0.250000	0.750000	0.553800
C74	C	0.750000	0.250000	0.553800
C75	C	0.750000	0.750000	0.446200
C76	C	0.250000	0.250000	0.446200
C77	C	0.250000	0.553800	0.750000
C78	C	0.750000	0.553800	0.250000
C79	C	0.250000	0.446200	0.250000
C80	C	0.750000	0.446200	0.750000
C81	C	0.250000	0.750000	0.446200
C82	C	0.750000	0.250000	0.446200
C83	C	0.250000	0.250000	0.553800
C84	C	0.750000	0.750000	0.553800
C85	C	0.250000	0.553800	0.250000
C86	C	0.750000	0.553800	0.750000
C87	C	0.750000	0.446200	0.250000
C88	C	0.250000	0.446200	0.750000
C89	C	0.553800	0.250000	0.750000
C90	C	0.553800	0.750000	0.250000
C91	C	0.446200	0.750000	0.750000
C92	C	0.446200	0.250000	0.250000
C93	C	0.553800	0.250000	0.250000
C94	C	0.553800	0.750000	0.750000
C95	C	0.446200	0.250000	0.750000
C96	C	0.446200	0.750000	0.250000
C97	C	0.282900	0.217100	0.026900
C98	C	0.717100	0.782900	0.026900
C99	C	0.717100	0.217100	0.973100
C100	C	0.282900	0.782900	0.973100
C101	C	0.026900	0.282900	0.217100
C102	C	0.026900	0.717100	0.782900
C103	C	0.973100	0.717100	0.217100
C104	C	0.973100	0.282900	0.782900
C105	C	0.217100	0.026900	0.282900
C106	C	0.782900	0.026900	0.717100
C107	C	0.217100	0.973100	0.717100
C108	C	0.782900	0.973100	0.282900
C109	C	0.217100	0.282900	0.973100
C110	C	0.782900	0.717100	0.973100
C111	C	0.217100	0.717100	0.026900
C112	C	0.782900	0.282900	0.026900
C113	C	0.282900	0.026900	0.782900
C114	C	0.717100	0.026900	0.217100
C115	C	0.717100	0.973100	0.782900
C116	C	0.282900	0.973100	0.217100
C117	C	0.026900	0.217100	0.717100
C118	C	0.026900	0.782900	0.282900
C119	C	0.973100	0.217100	0.282900
C120	C	0.973100	0.782900	0.717100
C121	C	0.282900	0.717100	0.526900
C122	C	0.717100	0.282900	0.526900
C123	C	0.717100	0.717100	0.473100
C124	C	0.282900	0.282900	0.473100
C125	C	0.026900	0.782900	0.717100
C126	C	0.026900	0.217100	0.282900
C127	C	0.973100	0.217100	0.717100
C128	C	0.973100	0.782900	0.282900
C129	C	0.217100	0.526900	0.782900
C130	C	0.782900	0.526900	0.217100
C131	C	0.217100	0.473100	0.217100
C132	C	0.782900	0.473100	0.782900
C133	C	0.217100	0.782900	0.473100
C134	C	0.782900	0.217100	0.473100
C135	C	0.217100	0.217100	0.526900
C136	C	0.782900	0.782900	0.526900
C137	C	0.282900	0.526900	0.282900
C138	C	0.717100	0.526900	0.717100
C139	C	0.717100	0.473100	0.282900
C140	C	0.282900	0.473100	0.717100
C141	C	0.026900	0.717100	0.217100
C142	C	0.026900	0.282900	0.782900
C143	C	0.973100	0.717100	0.782900
C144	C	0.973100	0.282900	0.217100
C145	C	0.782900	0.217100	0.526900
C146	C	0.217100	0.782900	0.526900
C147	C	0.217100	0.217100	0.473100
C148	C	0.782900	0.782900	0.473100
C149	C	0.526900	0.282900	0.717100
C150	C	0.526900	0.717100	0.282900
C151	C	0.473100	0.717100	0.717100
C152	C	0.473100	0.282900	0.282900
C153	C	0.717100	0.026900	0.782900
C154	C	0.282900	0.026900	0.217100
C155	C	0.717100	0.973100	0.217100
C156	C	0.282900	0.973100	0.782900
C157	C	0.717100	0.282900	0.473100
C158	C	0.282900	0.717100	0.473100
C159	C	0.717100	0.717100	0.526900
C160	C	0.282900	0.282900	0.526900
C161	C	0.782900	0.026900	0.282900
C162	C	0.217100	0.026900	0.717100
C163	C	0.217100	0.973100	0.282900
C164	C	0.782900	0.973100	0.717100
C165	C	0.526900	0.217100	0.217100
C166	C	0.526900	0.782900	0.782900
C167	C	0.473100	0.217100	0.782900
C168	C	0.473100	0.782900	0.217100
C169	C	0.782900	0.717100	0.026900
C170	C	0.217100	0.282900	0.026900
C171	C	0.217100	0.717100	0.973100
C172	C	0.782900	0.282900	0.973100
C173	C	0.526900	0.782900	0.217100
C174	C	0.526900	0.217100	0.782900
C175	C	0.473100	0.217100	0.217100
C176	C	0.473100	0.782900	0.782900
C177	C	0.717100	0.526900	0.282900
C178	C	0.282900	0.526900	0.717100
C179	C	0.717100	0.473100	0.717100
C180	C	0.282900	0.473100	0.282900
C181	C	0.717100	0.782900	0.973100
C182	C	0.282900	0.217100	0.973100
C183	C	0.717100	0.217100	0.026900
C184	C	0.282900	0.782900	0.026900
C185	C	0.782900	0.526900	0.782900
C186	C	0.217100	0.526900	0.217100
C187	C	0.217100	0.473100	0.782900
C188	C	0.782900	0.473100	0.217100
C189	C	0.526900	0.717100	0.717100
C190	C	0.526900	0.282900	0.282900
C191	C	0.473100	0.717100	0.282900
C192	C	0.473100	0.282900	0.717100
H1	H	0.304900	0.195100	0.044800
H2	H	0.695100	0.804900	0.044800
H3	H	0.695100	0.195100	0.955200
H4	H	0.304900	0.804900	0.955200
H5	H	0.044800	0.304900	0.195100
H6	H	0.044800	0.695100	0.804900
H7	H	0.955200	0.695100	0.195100
H8	H	0.955200	0.304900	0.804900
H9	H	0.195100	0.044800	0.304900
H10	H	0.804900	0.044800	0.695100
H11	H	0.195100	0.955200	0.695100
H12	H	0.804900	0.955200	0.304900
H13	H	0.304900	0.695100	0.544800
H14	H	0.695100	0.304900	0.544800
H15	H	0.695100	0.695100	0.455200
H16	H	0.304900	0.304900	0.455200
H17	H	0.044800	0.804900	0.695100
H18	H	0.044800	0.195100	0.304900
H19	H	0.955200	0.195100	0.695100
H20	H	0.955200	0.804900	0.304900
H21	H	0.195100	0.544800	0.804900
H22	H	0.804900	0.544800	0.195100
H23	H	0.195100	0.455200	0.195100
H24	H	0.804900	0.455200	0.804900
H25	H	0.044800	0.695100	0.195100
H26	H	0.044800	0.304900	0.804900
H27	H	0.955200	0.695100	0.804900
H28	H	0.955200	0.304900	0.195100
H29	H	0.804900	0.195100	0.544800
H30	H	0.195100	0.804900	0.544800
H31	H	0.195100	0.195100	0.455200
H32	H	0.804900	0.804900	0.455200
H33	H	0.544800	0.304900	0.695100
H34	H	0.544800	0.695100	0.304900
H35	H	0.455200	0.695100	0.695100
H36	H	0.455200	0.304900	0.304900
H37	H	0.695100	0.044800	0.804900
H38	H	0.304900	0.044800	0.195100
H39	H	0.695100	0.955200	0.195100
H40	H	0.304900	0.955200	0.804900
H41	H	0.695100	0.304900	0.455200
H42	H	0.304900	0.695100	0.455200
H43	H	0.695100	0.695100	0.544800
H44	H	0.304900	0.304900	0.544800
H45	H	0.804900	0.044800	0.304900
H46	H	0.195100	0.044800	0.695100
H47	H	0.195100	0.955200	0.304900
H48	H	0.804900	0.955200	0.695100
H49	H	0.804900	0.695100	0.044800
H50	H	0.195100	0.304900	0.044800
H51	H	0.195100	0.695100	0.955200
H52	H	0.804900	0.304900	0.955200
H53	H	0.544800	0.804900	0.195100
H54	H	0.544800	0.195100	0.804900
H55	H	0.455200	0.195100	0.195100
H56	H	0.455200	0.804900	0.804900
H57	H	0.695100	0.544800	0.304900
H58	H	0.304900	0.544800	0.695100
H59	H	0.695100	0.455200	0.695100
H60	H	0.304900	0.455200	0.304900
H61	H	0.695100	0.804900	0.955200
H62	H	0.304900	0.195100	0.955200
H63	H	0.695100	0.195100	0.044800
H64	H	0.304900	0.804900	0.044800
H65	H	0.804900	0.544800	0.804900
H66	H	0.195100	0.544800	0.195100
H67	H	0.195100	0.455200	0.804900
H68	H	0.804900	0.455200	0.195100
H69	H	0.544800	0.695100	0.695100
H70	H	0.544800	0.304900	0.304900
H71	H	0.455200	0.695100	0.304900
H72	H	0.455200	0.304900	0.695100
O105	O	0.184678	0.315323	0.945787
C193	C	0.150009	0.349993	0.967145
C194	C	0.121642	0.378358	0.924061
H73	H	0.121226	0.328997	0.991307
H74	H	0.171007	0.378776	0.991304
H75	H	0.100178	0.350276	0.899572
H76	H	0.093707	0.406296	0.941000
H77	H	0.149724	0.399820	0.899569
O106	O	0.815322	0.684677	0.945787
C195	C	0.849991	0.650007	0.967145
C196	C	0.878358	0.621642	0.924061
H78	H	0.878774	0.671003	0.991307
H79	H	0.828993	0.621224	0.991304
H80	H	0.899822	0.649724	0.899572
H81	H	0.906293	0.593704	0.941000
H82	H	0.850276	0.600180	0.899569
O107	O	0.815322	0.315323	0.054213
C197	C	0.849991	0.349993	0.032855
C198	C	0.878358	0.378358	0.075939
H83	H	0.878774	0.328997	0.008693
H84	H	0.828993	0.378776	0.008696
H85	H	0.899822	0.350276	0.100428
H86	H	0.906293	0.406296	0.059000
H87	H	0.850276	0.399820	0.100431
O108	O	0.184677	0.684678	0.054213
C199	C	0.150007	0.650009	0.032855
C200	C	0.121642	0.621642	0.075939
H88	H	0.171003	0.621226	0.008693
H89	H	0.121224	0.671007	0.008696
H90	H	0.149724	0.600178	0.100428
H91	H	0.093704	0.593707	0.059000
H92	H	0.100180	0.649724	0.100431
O109	O	0.945787	0.184677	0.315322
C201	C	0.967145	0.150007	0.349991
C202	C	0.924061	0.121642	0.378358
H93	H	0.991307	0.171003	0.378774
H94	H	0.991304	0.121224	0.328993
H95	H	0.899572	0.149724	0.399822
H96	H	0.941000	0.093704	0.406293
H97	H	0.899569	0.100180	0.350276
O110	O	0.945787	0.815322	0.684677
C203	C	0.967145	0.849991	0.650007
C204	C	0.924061	0.878358	0.621642
H98	H	0.991307	0.878774	0.671003
H99	H	0.991304	0.828993	0.621224
H100	H	0.899572	0.899822	0.649724
H101	H	0.941000	0.906293	0.593704
H102	H	0.899569	0.850276	0.600180
O111	O	0.054213	0.815323	0.315322
C205	C	0.032855	0.849993	0.349991
C206	C	0.075939	0.878358	0.378358
H103	H	0.008693	0.828997	0.378774
H104	H	0.008696	0.878776	0.328993
H105	H	0.100428	0.850276	0.399822
H106	H	0.059000	0.906296	0.406293
H107	H	0.100431	0.899820	0.350276
O112	O	0.054213	0.184677	0.684678
C207	C	0.032855	0.150007	0.650009
C208	C	0.075939	0.121642	0.621642
H108	H	0.008693	0.171003	0.621226
H109	H	0.008696	0.121224	0.671007
H110	H	0.100428	0.149724	0.600178
H111	H	0.059000	0.093704	0.593707
H112	H	0.100431	0.100180	0.649724
O113	O	0.315322	0.945787	0.184677
C209	C	0.349991	0.967145	0.150007
C210	C	0.378358	0.924061	0.121642
H113	H	0.378774	0.991307	0.171003
H114	H	0.328993	0.991304	0.121224
H115	H	0.399822	0.899572	0.149724
H116	H	0.406293	0.941000	0.093704
H117	H	0.350276	0.899569	0.100180
O114	O	0.684678	0.945787	0.815323
C211	C	0.650009	0.967145	0.849993
C212	C	0.621642	0.924061	0.878358
H118	H	0.621226	0.991307	0.828997
H119	H	0.671007	0.991304	0.878776
H120	H	0.600178	0.899572	0.850276
H121	H	0.593707	0.941000	0.906296
H122	H	0.649724	0.899569	0.899820
O115	O	0.315323	0.054213	0.815322
C213	C	0.349993	0.032855	0.849991
C214	C	0.378358	0.075939	0.878358
H123	H	0.328997	0.008693	0.878774
H124	H	0.378776	0.008696	0.828993
H125	H	0.350276	0.100428	0.899822
H126	H	0.406296	0.059000	0.906293
H127	H	0.399820	0.100431	0.850276
O116	O	0.684678	0.054213	0.184677
C215	C	0.650009	0.032855	0.150007
C216	C	0.621642	0.075939	0.121642
H128	H	0.621226	0.008693	0.171003
H129	H	0.671007	0.008696	0.121224
H130	H	0.600178	0.100428	0.149724
H131	H	0.593707	0.059000	0.093704
H132	H	0.649724	0.100431	0.100180
O117	O	0.184678	0.815323	0.445787
C217	C	0.150009	0.849993	0.467145
C218	C	0.121642	0.878358	0.424061
H133	H	0.121226	0.828997	0.491307
H134	H	0.171007	0.878776	0.491304
H135	H	0.100178	0.850276	0.399572
H136	H	0.093707	0.906296	0.441000
H137	H	0.149724	0.899820	0.399569
O118	O	0.815323	0.184678	0.445787
C219	C	0.849993	0.150009	0.467145
C220	C	0.878358	0.121642	0.424061
H138	H	0.828997	0.121226	0.491307
H139	H	0.878776	0.171007	0.491304
H140	H	0.850276	0.100178	0.399572
H141	H	0.906296	0.093707	0.441000
H142	H	0.899820	0.149724	0.399569
O119	O	0.815322	0.815323	0.554213
C221	C	0.849991	0.849993	0.532855
C222	C	0.878358	0.878358	0.575939
H143	H	0.878774	0.828997	0.508693
H144	H	0.828993	0.878776	0.508696
H145	H	0.899822	0.850276	0.600428
H146	H	0.906293	0.906296	0.559000
H147	H	0.850276	0.899820	0.600431
O120	O	0.184677	0.184678	0.554213
C223	C	0.150007	0.150009	0.532855
C224	C	0.121642	0.121642	0.575939
H148	H	0.171003	0.121226	0.508693
H149	H	0.121224	0.171007	0.508696
H150	H	0.149724	0.100178	0.600428
H151	H	0.093704	0.093707	0.559000
H152	H	0.100180	0.149724	0.600431
O121	O	0.315323	0.445787	0.684678
C225	C	0.349993	0.467145	0.650009
C226	C	0.378358	0.424061	0.621642
H153	H	0.328997	0.491307	0.621226
H154	H	0.378776	0.491304	0.671007
H155	H	0.350276	0.399572	0.600178
H156	H	0.406296	0.441000	0.593707
H157	H	0.399820	0.399569	0.649724
O122	O	0.684678	0.445787	0.315323
C227	C	0.650009	0.467145	0.349993
C228	C	0.621642	0.424061	0.378358
H158	H	0.621226	0.491307	0.328997
H159	H	0.671007	0.491304	0.378776
H160	H	0.600178	0.399572	0.350276
H161	H	0.593707	0.441000	0.406296
H162	H	0.649724	0.399569	0.399820
O123	O	0.315323	0.554213	0.315322
C229	C	0.349993	0.532855	0.349991
C230	C	0.378358	0.575939	0.378358
H163	H	0.328997	0.508693	0.378774
H164	H	0.378776	0.508696	0.328993
H165	H	0.350276	0.600428	0.399822
H166	H	0.406296	0.559000	0.406293
H167	H	0.399820	0.600431	0.350276
O124	O	0.684678	0.554213	0.684677
C231	C	0.650009	0.532855	0.650007
C232	C	0.621642	0.575939	0.621642
H168	H	0.621226	0.508693	0.671003
H169	H	0.671007	0.508696	0.621224
H170	H	0.600178	0.600428	0.649724
H171	H	0.593707	0.559000	0.593704
H172	H	0.649724	0.600431	0.600180
O125	O	0.445787	0.184677	0.815322
C233	C	0.467145	0.150007	0.849991
C234	C	0.424061	0.121642	0.878358
H173	H	0.491307	0.171003	0.878774
H174	H	0.491304	0.121224	0.828993
H175	H	0.399572	0.149724	0.899822
H176	H	0.441000	0.093704	0.906293
H177	H	0.399569	0.100180	0.850276
O126	O	0.445787	0.815322	0.184677
C235	C	0.467145	0.849991	0.150007
C236	C	0.424061	0.878358	0.121642
H178	H	0.491307	0.878774	0.171003
H179	H	0.491304	0.828993	0.121224
H180	H	0.399572	0.899822	0.149724
H181	H	0.441000	0.906293	0.093704
H182	H	0.399569	0.850276	0.100180
O127	O	0.554213	0.815322	0.815323
C237	C	0.532855	0.849991	0.849993
C238	C	0.575939	0.878358	0.878358
H183	H	0.508693	0.878774	0.828997
H184	H	0.508696	0.828993	0.878776
H185	H	0.600428	0.899822	0.850276
H186	H	0.559000	0.906293	0.906296
H187	H	0.600431	0.850276	0.899820
O128	O	0.554213	0.184677	0.184678
C239	C	0.532855	0.150007	0.150009
C240	C	0.575939	0.121642	0.121642
H188	H	0.508693	0.171003	0.121226
H189	H	0.508696	0.121224	0.171007
H190	H	0.600428	0.149724	0.100178
H191	H	0.559000	0.093704	0.093707
H192	H	0.600431	0.100180	0.149724

loop_
_geom_bond_atom_site_label_1
_geom_bond_atom_site_label_2
_geom_bond_distance
Zn1	O1	0.07514
Zn1	O9	0.07442
Zn1	O66	0.07442
Zn1	O87	0.07442
Zn2	O2	0.07514
Zn2	O10	0.07442
Zn2	O67	0.07442
Zn2	O85	0.07442
Zn3	O3	0.07514
Zn3	O11	0.07442
Zn3	O65	0.07442
Zn3	O86	0.07442
Zn4	O4	0.07514
Zn4	O12	0.07442
Zn4	O68	0.07442
Zn4	O88	0.07442
Zn5	O1	0.07514
Zn5	O13	0.07442
Zn5	O43	0.07442
Zn5	O82	0.07442
Zn6	O4	0.07514
Zn6	O14	0.07442
Zn6	O41	0.07442
Zn6	O83	0.07442
Zn7	O2	0.07514
Zn7	O15	0.07442
Zn7	O42	0.07442
Zn7	O81	0.07442
Zn8	O3	0.07514
Zn8	O16	0.07442
Zn8	O44	0.07442
Zn8	O84	0.07442
Zn9	O1	0.07514
Zn9	O17	0.07442
Zn9	O38	0.07442
Zn9	O59	0.07442
Zn10	O3	0.07514
Zn10	O18	0.07442
Zn10	O39	0.07442
Zn10	O57	0.07442
Zn11	O4	0.07514
Zn11	O19	0.07442
Zn11	O37	0.07442
Zn11	O58	0.07442
Zn12	O2	0.07514
Zn12	O20	0.07442
Zn12	O40	0.07442
Zn12	O60	0.07442
Zn13	O5	0.07514
Zn13	O21	0.07442
Zn13	O54	0.07442
Zn13	O99	0.07442
Zn14	O6	0.07514
Zn14	O22	0.07442
Zn14	O55	0.07442
Zn14	O97	0.07442
Zn15	O7	0.07514
Zn15	O23	0.07442
Zn15	O53	0.07442
Zn15	O98	0.07442
Zn16	O8	0.07514
Zn16	O24	0.07442
Zn16	O56	0.07442
Zn16	O100	0.07442
Zn17	O5	0.07514
Zn17	O25	0.07442
Zn17	O79	0.07442
Zn17	O94	0.07442
Zn18	O8	0.07514
Zn18	O26	0.07442
Zn18	O77	0.07442
Zn18	O95	0.07442
Zn19	O6	0.07514
Zn19	O27	0.07442
Zn19	O78	0.07442
Zn19	O93	0.07442
Zn20	O7	0.07514
Zn20	O28	0.07442
Zn20	O80	0.07442
Zn20	O96	0.07442
Zn21	O5	0.07514
Zn21	O29	0.07442
Zn21	O47	0.07442
Zn21	O74	0.07442
Zn22	O7	0.07514
Zn22	O30	0.07442
Zn22	O45	0.07442
Zn22	O75	0.07442
Zn23	O8	0.07514
Zn23	O31	0.07442
Zn23	O46	0.07442
Zn23	O73	0.07442
Zn24	O6	0.07514
Zn24	O32	0.07442
Zn24	O48	0.07442
Zn24	O76	0.07442
Zn25	O4	0.07514
Zn25	O33	0.07442
Zn25	O63	0.07442
Zn25	O90	0.07442
Zn26	O3	0.07514
Zn26	O34	0.07442
Zn26	O61	0.07442
Zn26	O91	0.07442
Zn27	O2	0.07514
Zn27	O35	0.07442
Zn27	O62	0.07442
Zn27	O89	0.07442
Zn28	O1	0.07514
Zn28	O36	0.07442
Zn28	O64	0.07442
Zn28	O92	0.07442
Zn29	O7	0.07514
Zn29	O49	0.07442
Zn29	O70	0.07442
Zn29	O103	0.07442
Zn30	O6	0.07514
Zn30	O50	0.07442
Zn30	O71	0.07442
Zn30	O101	0.07442
Zn31	O8	0.07514
Zn31	O51	0.07442
Zn31	O69	0.07442
Zn31	O102	0.07442
Zn32	O5	0.07514
Zn32	O52	0.07442
Zn32	O72	0.07442
Zn32	O104	0.07442
O9	C1	0.05046
O10	C2	0.05046
O11	C3	0.05046
O12	C4	0.05046
O13	C5	0.05046
O14	C6	0.05046
O15	C7	0.05046
O16	C8	0.05046
O17	C9	0.05046
O18	C10	0.05046
O19	C11	0.05046
O20	C12	0.05046
O21	C13	0.05046
O22	C14	0.05046
O23	C15	0.05046
O24	C16	0.05046
O25	C17	0.05046
O26	C18	0.05046
O27	C19	0.05046
O28	C20	0.05046
O29	C21	0.05046
O30	C22	0.05046
O31	C23	0.05046
O32	C24	0.05046
O33	C25	0.05046
O34	C26	0.05046
O35	C27	0.05046
O36	C28	0.05046
O37	C6	0.05046
O38	C5	0.05046
O39	C8	0.05046
O40	C7	0.05046
O41	C29	0.05046
O42	C30	0.05046
O43	C31	0.05046
O44	C32	0.05046
O45	C33	0.05046
O46	C34	0.05046
O47	C35	0.05046
O48	C36	0.05046
O49	C37	0.05046
O50	C38	0.05046
O51	C39	0.05046
O52	C40	0.05046
O53	C22	0.05046
O54	C21	0.05046
O55	C24	0.05046
O56	C23	0.05046
O57	C26	0.05046
O58	C25	0.05046
O59	C28	0.05046
O60	C27	0.05046
O61	C41	0.05046
O62	C42	0.05046
O63	C43	0.05046
O64	C44	0.05046
O65	C10	0.05046
O66	C9	0.05046
O67	C12	0.05046
O68	C11	0.05046
O69	C34	0.05046
O70	C33	0.05046
O71	C36	0.05046
O72	C35	0.05046
O73	C18	0.05046
O74	C17	0.05046
O75	C20	0.05046
O76	C19	0.05046
O77	C45	0.05046
O78	C46	0.05046
O79	C47	0.05046
O80	C48	0.05046
O81	C2	0.05046
O82	C1	0.05046
O83	C4	0.05046
O84	C3	0.05046
O85	C42	0.05046
O86	C41	0.05046
O87	C44	0.05046
O88	C43	0.05046
O89	C30	0.05046
O90	C29	0.05046
O91	C32	0.05046
O92	C31	0.05046
O93	C14	0.05046
O94	C13	0.05046
O95	C16	0.05046
O96	C15	0.05046
O97	C38	0.05046
O98	C37	0.05046
O99	C40	0.05046
O100	C39	0.05046
O101	C46	0.05046
O102	C45	0.05046
O103	C48	0.05046
O104	C47	0.05046
C1	C49	0.05750
C2	C50	0.05750
C3	C51	0.05750
C4	C52	0.05750
C5	C53	0.05750
C6	C54	0.05750
C7	C55	0.05750
C8	C56	0.05750
C9	C57	0.05750
C10	C58	0.05750
C11	C59	0.05750
C12	C60	0.05750
C13	C61	0.05750
C14	C62	0.05750
C15	C63	0.05750
C16	C64	0.05750
C17	C65	0.05750
C18	C66	0.05750
C19	C67	0.05750
C20	C68	0.05750
C21	C69	0.05750
C22	C70	0.05750
C23	C71	0.05750
C24	C72	0.05750
C25	C73	0.05750
C26	C74	0.05750
C27	C75	0.05750
C28	C76	0.05750
C29	C77	0.05750
C30	C78	0.05750
C31	C79	0.05750
C32	C80	0.05750
C33	C81	0.05750
C34	C82	0.05750
C35	C83	0.05750
C36	C84	0.05750
C37	C85	0.05750
C38	C86	0.05750
C39	C87	0.05750
C40	C88	0.05750
C41	C89	0.05750
C42	C90	0.05750
C43	C91	0.05750
C44	C92	0.05750
C45	C93	0.05750
C46	C94	0.05750
C47	C95	0.05750
C48	C96	0.05750
C49	C97	0.05374
C49	C170	0.05374
C50	C98	0.05374
C50	C169	0.05374
C51	C99	0.05374
C51	C172	0.05374
C52	C100	0.05374
C52	C171	0.05374
C53	C101	0.05374
C53	C126	0.05374
C54	C102	0.05374
C54	C125	0.05374
C55	C103	0.05374
C55	C128	0.05374
C56	C104	0.05374
C56	C127	0.05374
C57	C105	0.05374
C57	C154	0.05374
C58	C106	0.05374
C58	C153	0.05374
C59	C107	0.05374
C59	C156	0.05374
C60	C108	0.05374
C60	C155	0.05374
C61	C109	0.05374
C61	C182	0.05374
C62	C110	0.05374
C62	C181	0.05374
C63	C111	0.05374
C63	C184	0.05374
C64	C112	0.05374
C64	C183	0.05374
C65	C113	0.05374
C65	C162	0.05374
C66	C114	0.05374
C66	C161	0.05374
C67	C115	0.05374
C67	C164	0.05374
C68	C116	0.05374
C68	C163	0.05374
C69	C117	0.05374
C69	C142	0.05374
C70	C118	0.05374
C70	C141	0.05374
C71	C119	0.05374
C71	C144	0.05374
C72	C120	0.05374
C72	C143	0.05374
C73	C121	0.05374
C73	C146	0.05374
C74	C122	0.05374
C74	C145	0.05374
C75	C123	0.05374
C75	C148	0.05374
C76	C124	0.05374
C76	C147	0.05374
C77	C129	0.05374
C77	C178	0.05374
C78	C130	0.05374
C78	C177	0.05374
C79	C131	0.05374
C79	C180	0.05374
C80	C132	0.05374
C80	C179	0.05374
C81	C133	0.05374
C81	C158	0.05374
C82	C134	0.05374
C82	C157	0.05374
C83	C135	0.05374
C83	C160	0.05374
C84	C136	0.05374
C84	C159	0.05374
C85	C137	0.05374
C85	C186	0.05374
C86	C138	0.05374
C86	C185	0.05374
C87	C139	0.05374
C87	C188	0.05374
C88	C140	0.05374
C88	C187	0.05374
C89	C149	0.05374
C89	C174	0.05374
C90	C150	0.05374
C90	C173	0.05374
C91	C151	0.05374
C91	C176	0.05374
C92	C152	0.05374
C92	C175	0.05374
C93	C165	0.05374
C93	C190	0.05374
C94	C166	0.05374
C94	C189	0.05374
C95	C167	0.05374
C95	C192	0.05374
C96	C168	0.05374
C96	C191	0.05374
C97	C182	0.05380
C97	H1	0.03589
C98	C181	0.05380
C98	H2	0.03589
C99	C183	0.05380
C99	H3	0.03589
C100	C184	0.05380
C100	H4	0.03589
C101	C144	0.05380
C101	H5	0.03589
C102	C143	0.05380
C102	H6	0.03589
C103	C141	0.05380
C103	H7	0.03589
C104	C142	0.05380
C104	H8	0.03589
C105	C163	0.05380
C105	H9	0.03589
C106	C164	0.05380
C106	H10	0.03589
C107	C162	0.05380
C107	H11	0.03589
C108	C161	0.05380
C108	H12	0.03589
C109	C170	0.05380
C109	O105	0.05337
C110	C169	0.05380
C110	O106	0.05337
C111	C171	0.05380
C111	O108	0.05337
C112	C172	0.05380
C112	O107	0.05337
C113	C156	0.05380
C113	O115	0.05337
C114	C155	0.05380
C114	O116	0.05337
C115	C153	0.05380
C115	O114	0.05337
C116	C154	0.05380
C116	O113	0.05337
C117	C127	0.05380
C117	O112	0.05337
C118	C128	0.05380
C118	O111	0.05337
C119	C126	0.05380
C119	O109	0.05337
C120	C125	0.05380
C120	O110	0.05337
C121	C158	0.05380
C121	H13	0.03589
C122	C157	0.05380
C122	H14	0.03589
C123	C159	0.05380
C123	H15	0.03589
C124	C160	0.05380
C124	H16	0.03589
C125	H17	0.03589
C126	H18	0.03589
C127	H19	0.03589
C128	H20	0.03589
C129	C187	0.05380
C129	H21	0.03589
C130	C188	0.05380
C130	H22	0.03589
C131	C186	0.05380
C131	H23	0.03589
C132	C185	0.05380
C132	H24	0.03589
C133	C146	0.05380
C133	O117	0.05337
C134	C145	0.05380
C134	O118	0.05337
C135	C147	0.05380
C135	O120	0.05337
C136	C148	0.05380
C136	O119	0.05337
C137	C180	0.05380
C137	O123	0.05337
C138	C179	0.05380
C138	O124	0.05337
C139	C177	0.05380
C139	O122	0.05337
C140	C178	0.05380
C140	O121	0.05337
C141	H25	0.03589
C142	H26	0.03589
C143	H27	0.03589
C144	H28	0.03589
C145	H29	0.03589
C146	H30	0.03589
C147	H31	0.03589
C148	H32	0.03589
C149	C192	0.05380
C149	H33	0.03589
C150	C191	0.05380
C150	H34	0.03589
C151	C189	0.05380
C151	H35	0.03589
C152	C190	0.05380
C152	H36	0.03589
C153	H37	0.03589
C154	H38	0.03589
C155	H39	0.03589
C156	H40	0.03589
C157	H41	0.03589
C158	H42	0.03589
C159	H43	0.03589
C160	H44	0.03589
C161	H45	0.03589
C162	H46	0.03589
C163	H47	0.03589
C164	H48	0.03589
C165	C175	0.05380
C165	O128	0.05337
C166	C176	0.05380
C166	O127	0.05337
C167	C174	0.05380
C167	O125	0.05337
C168	C173	0.05380
C168	O126	0.05337
C169	H49	0.03589
C170	H50	0.03589
C171	H51	0.03589
C172	H52	0.03589
C173	H53	0.03589
C174	H54	0.03589
C175	H55	0.03589
C176	H56	0.03589
C177	H57	0.03589
C178	H58	0.03589
C179	H59	0.03589
C180	H60	0.03589
C181	H61	0.03589
C182	H62	0.03589
C183	H63	0.03589
C184	H64	0.03589
C185	H65	0.03589
C186	H66	0.03589
C187	H67	0.03589
C188	H68	0.03589
C189	H69	0.03589
C190	H70	0.03589
C191	H71	0.03589
C192	H72	0.03589
O105	C193	0.05348
C193	C194	0.05887
C193	H73	0.04305
C193	H74	0.04305
C194	H75	0.04300
C194	H76	0.04299
C194	H77	0.04300
O106	C195	0.05348
C195	C196	0.05887
C195	H78	0.04305
C195	H79	0.04305
C196	H80	0.04300
C196	H81	0.04299
C196	H82	0.04300
O107	C197	0.05348
C197	C198	0.05887
C197	H83	0.04305
C197	H84	0.04305
C198	H85	0.04300
C198	H86	0.04299
C198	H87	0.04300
O108	C199	0.05348
C199	C200	0.05887
C199	H88	0.04305
C199	H89	0.04305
C200	H90	0.04300
C200	H91	0.04299
C200	H92	0.04300
O109	C201	0.05348
C201	C202	0.05887
C201	H93	0.04305
C201	H94	0.04305
C202	H95	0.04300
C202	H96	0.04299
C202	H97	0.04300
O110	C203	0.05348
C203	C204	0.05887
C203	H98	0.04305
C203	H99	0.04305
C204	H100	0.04300
C204	H101	0.04299
C204	H102	0.04300
O111	C205	0.05348
C205	C206	0.05887
C205	H103	0.04305
C205	H104	0.04305
C206	H105	0.04300
C206	H106	0.04299
C206	H107	0.04300
O112	C207	0.05348
C207	C208	0.05887
C207	H108	0.04305
C207	H109	0.04305
C208	H110	0.04300
C208	H111	0.04299
C208	H112	0.04300
O113	C209	0.05348
C209	C210	0.05887
C209	H113	0.04305
C209	H114	0.04305
C210	H115	0.04300
C210	H116	0.04299
C210	H117	0.04300
O114	C211	0.05348
C211	C212	0.05887
C211	H118	0.04305
C211	H119	0.04305
C212	H120	0.04300
C212	H121	0.04299
C212	H122	0.04300
O115	C213	0.05348
C213	C214	0.05887
C213	H123	0.04305
C213	H124	0.04305
C214	H125	0.04300
C214	H126	0.04299
C214	H127	0.04300
O116	C215	0.05348
C215	C216	0.05887
C215	H128	0.04305
C215	H129	0.04305
C216	H130	0.04300
C216	H131	0.04299
C216	H132	0.04300
O117	C217	0.05348
C217	C218	0.05887
C217	H133	0.04305
C217	H134	0.04305
C218	H135	0.04300
C218	H136	0.04299
C218	H137	0.04300
O118	C219	0.05348
C219	C220	0.05887
C219	H138	0.04305
C219	H139	0.04305
C220	H140	0.04300
C220	H141	0.04299
C220	H142	0.04300
O119	C221	0.05348
C221	C222	0.05887
C221	H143	0.04305
C221	H144	0.04305
C222	H145	0.04300
C222	H146	0.04299
C222	H147	0.04300
O120	C223	0.05348
C223	C224	0.05887
C223	H148	0.04305
C223	H149	0.04305
C224	H150	0.04300
C224	H151	0.04299
C224	H152	0.04300
O121	C225	0.05348
C225	C226	0.05887
C225	H153	0.04305
C225	H154	0.04305
C226	H155	0.04300
C226	H156	0.04299
C226	H157	0.04300
O122	C227	0.05348
C227	C228	0.05887
C227	H158	0.04305
C227	H159	0.04305
C228	H160	0.04300
C228	H161	0.04299
C228	H162	0.04300
O123	C229	0.05348
C229	C230	0.05887
C229	H163	0.04305
C229	H164	0.04305
C230	H165	0.04300
C230	H166	0.04299
C230	H167	0.04300
O124	C231	0.05348
C231	C232	0.05887
C231	H168	0.04305
C231	H169	0.04305
C232	H170	0.04300
C232	H171	0.04299
C232	H172	0.04300
O125	C233	0.05348
C233	C234	0.05887
C233	H173	0.04305
C233	H174	0.04305
C234	H175	0.04300
C234	H176	0.04299
C234	H177	0.04300
O126	C235	0.05348
C235	C236	0.05887
C235	H178	0.04305
C235	H179	0.04305
C236	H180	0.04300
C236	H181	0.04299
C236	H182	0.04300
O127	C237	0.05348
C237	C238	0.05887
C237	H183	0.04305
C237	H184	0.04305
C238	H185	0.04300
C238	H186	0.04299
C238	H187	0.04300
O128	C239	0.05348
C239	C240	0.05887
C239	H188	0.04305
C239	H189	0.04305
C240	H190	0.04300
C240	H191	0.04299
C240	H192	0.04300
