data_NiPyC2_experiment_with_Xe
_audit_creation_date              Monday 07 March 2022              
_audit_creation_method            Lammps Interface v.0              
_symmetry_space_group_name_H-M    P1                                
_symmetry_Int_Tables_number       1                                 
_symmetry_cell_setting            triclinic                         
loop_
_symmetry_equiv_pos_as_xyz        
'x, y, z'                         
_cell_length_a                    31.2640 
_cell_length_b                    37.5702 
_cell_length_c                    30.8304 
_cell_angle_alpha                 90.0000 
_cell_angle_beta                  91.2690 
_cell_angle_gamma                 90.0000 
loop_
_atom_site_label                  
_atom_site_type_symbol            
_atom_site_description            
_atom_site_fract_x                
_atom_site_fract_y                
_atom_site_fract_z                
_atom_type_partial_charge         
Ni1     Ni     Ni4+2    0.09896    0.25132    0.27981    0.00000 
O2      O      O_R      0.04826    0.11654    0.13097    0.00000 
O3      O      O_R      0.15098    0.04436    0.12340    0.00000 
O4      O      O_R      0.18738    0.11741    0.16577    0.00000 
O5      O      O_R      0.01330    0.03993    0.15807    0.00000 
N6      N      N_R      0.12558    0.28097    0.23207    0.00000 
N7      N      N_R      0.07222    0.21537    0.23837    0.00000 
C8      C      C_R      0.11756    0.31977    0.17113    0.00000 
H9      H      H_       0.10004    0.32873    0.14803    0.00000 
C10     C      C_R      0.15864    0.33267    0.17790    0.00000 
C11     C      C_R      0.18342    0.31820    0.21180    0.00000 
H12     H      H_       0.01204    0.32593    0.21683    0.00000 
C13     C      C_R      0.08154    0.17303    0.18137    0.00000 
H14     H      H_       0.09902    0.16367    0.15927    0.00000 
C15     C      C_R      0.09606    0.20107    0.20723    0.00000 
H16     H      H_       0.12382    0.21043    0.20263    0.00000 
C17     C      C_R      0.10230    0.29363    0.19833    0.00000 
H18     H      H_       0.07442    0.28433    0.19303    0.00000 
C19     C      C_R      0.16570    0.29257    0.23790    0.00000 
H20     H      H_       0.18266    0.28277    0.26087    0.00000 
C21     C      C_R      0.03290    0.20150    0.24487    0.00000 
H22     H      H_       0.01586    0.21153    0.26690    0.00000 
C23     C      C_R      0.01652    0.17343    0.22087    0.00000 
H24     H      H_       0.18892    0.16417    0.22637    0.00000 
C25     C      C_R      0.04158    0.15900    0.18820    0.00000 
C26     C      C_R      0.17560    0.02977    0.15167    0.00000 
C27     C      C_R      0.02440    0.12873    0.16050    0.00000 
Ni28    Ni     Ni4+2    0.19896    0.08201    0.11314    0.00000 
O29     O      O_R      0.14826    0.21679    0.29763    0.00000 
O30     O      O_R      0.05098    0.28897    0.29007    0.00000 
O31     O      O_R      0.08738    0.21592    0.33243    0.00000 
O32     O      O_R      0.11330    0.29340    0.32473    0.00000 
N33     N      N_R      0.02558    0.05237    0.06540    0.00000 
N34     N      N_R      0.17222    0.11797    0.07170    0.00000 
C35     C      C_R      0.01756    0.01357    0.00447    0.00000 
H36     H      H_       0.00004    0.00460    0.31470    0.00000 
C37     C      C_R      0.05864    0.00067    0.01123    0.00000 
C38     C      C_R      0.08342    0.01513    0.04513    0.00000 
H39     H      H_       0.11204    0.00740    0.05017    0.00000 
C40     C      C_R      0.18154    0.16030    0.01470    0.00000 
H41     H      H_       0.19902    0.16967    0.32593    0.00000 
C42     C      C_R      0.19606    0.13227    0.04057    0.00000 
H43     H      H_       0.02382    0.12290    0.03597    0.00000 
C44     C      C_R      0.00230    0.03970    0.03167    0.00000 
H45     H      H_       0.17442    0.04900    0.02637    0.00000 
C46     C      C_R      0.06570    0.04077    0.07123    0.00000 
H47     H      H_       0.08266    0.05057    0.09420    0.00000 
C48     C      C_R      0.13290    0.13183    0.07820    0.00000 
H49     H      H_       0.11586    0.12180    0.10023    0.00000 
C50     C      C_R      0.11652    0.15990    0.05420    0.00000 
H51     H      H_       0.08892    0.16917    0.05970    0.00000 
C52     C      C_R      0.14158    0.17433    0.02153    0.00000 
C53     C      C_R      0.07560    0.30357    0.31833    0.00000 
C54     C      C_R      0.12440    0.20460    0.32717    0.00000 
Xe55    Xe     Xe4+4    0.01427    0.24529    0.10947    0.00000 
Ni56    Ni     Ni4+2    0.09896    0.25132    0.61314    0.00000 
O57     O      O_R      0.04826    0.11654    0.46430    0.00000 
O58     O      O_R      0.15098    0.04436    0.45673    0.00000 
O59     O      O_R      0.18738    0.11741    0.49910    0.00000 
O60     O      O_R      0.01330    0.03993    0.49140    0.00000 
N61     N      N_R      0.12558    0.28097    0.56540    0.00000 
N62     N      N_R      0.07222    0.21537    0.57170    0.00000 
C63     C      C_R      0.11756    0.31977    0.50447    0.00000 
H64     H      H_       0.10004    0.32873    0.48137    0.00000 
C65     C      C_R      0.15864    0.33267    0.51123    0.00000 
C66     C      C_R      0.18342    0.31820    0.54513    0.00000 
H67     H      H_       0.01204    0.32593    0.55017    0.00000 
C68     C      C_R      0.08154    0.17303    0.51470    0.00000 
H69     H      H_       0.09902    0.16367    0.49260    0.00000 
C70     C      C_R      0.09606    0.20107    0.54057    0.00000 
H71     H      H_       0.12382    0.21043    0.53597    0.00000 
C72     C      C_R      0.10230    0.29363    0.53167    0.00000 
H73     H      H_       0.07442    0.28433    0.52637    0.00000 
C74     C      C_R      0.16570    0.29257    0.57123    0.00000 
H75     H      H_       0.18266    0.28277    0.59420    0.00000 
C76     C      C_R      0.03290    0.20150    0.57820    0.00000 
H77     H      H_       0.01586    0.21153    0.60023    0.00000 
C78     C      C_R      0.01652    0.17343    0.55420    0.00000 
H79     H      H_       0.18892    0.16417    0.55970    0.00000 
C80     C      C_R      0.04158    0.15900    0.52153    0.00000 
C81     C      C_R      0.17560    0.02977    0.48500    0.00000 
C82     C      C_R      0.02440    0.12873    0.49383    0.00000 
Ni83    Ni     Ni4+2    0.19896    0.08201    0.44648    0.00000 
O84     O      O_R      0.14826    0.21679    0.63097    0.00000 
O85     O      O_R      0.05098    0.28897    0.62340    0.00000 
O86     O      O_R      0.08738    0.21592    0.66577    0.00000 
O87     O      O_R      0.11330    0.29340    0.65807    0.00000 
N88     N      N_R      0.02558    0.05237    0.39873    0.00000 
N89     N      N_R      0.17222    0.11797    0.40503    0.00000 
C90     C      C_R      0.01756    0.01357    0.33780    0.00000 
H91     H      H_       0.00004    0.00460    0.64803    0.00000 
C92     C      C_R      0.05864    0.00067    0.34457    0.00000 
C93     C      C_R      0.08342    0.01513    0.37847    0.00000 
H94     H      H_       0.11204    0.00740    0.38350    0.00000 
C95     C      C_R      0.18154    0.16030    0.34803    0.00000 
H96     H      H_       0.19902    0.16967    0.65927    0.00000 
C97     C      C_R      0.19606    0.13227    0.37390    0.00000 
H98     H      H_       0.02382    0.12290    0.36930    0.00000 
C99     C      C_R      0.00230    0.03970    0.36500    0.00000 
H100    H      H_       0.17442    0.04900    0.35970    0.00000 
C101    C      C_R      0.06570    0.04077    0.40457    0.00000 
H102    H      H_       0.08266    0.05057    0.42753    0.00000 
C103    C      C_R      0.13290    0.13183    0.41153    0.00000 
H104    H      H_       0.11586    0.12180    0.43357    0.00000 
C105    C      C_R      0.11652    0.15990    0.38753    0.00000 
H106    H      H_       0.08892    0.16917    0.39303    0.00000 
C107    C      C_R      0.14158    0.17433    0.35487    0.00000 
C108    C      C_R      0.07560    0.30357    0.65167    0.00000 
C109    C      C_R      0.12440    0.20460    0.66050    0.00000 
Ni110   Ni     Ni4+2    0.09896    0.25132    0.94648    0.00000 
O111    O      O_R      0.04826    0.11654    0.79763    0.00000 
O112    O      O_R      0.15098    0.04436    0.79007    0.00000 
O113    O      O_R      0.18738    0.11741    0.83243    0.00000 
O114    O      O_R      0.01330    0.03993    0.82473    0.00000 
N115    N      N_R      0.12558    0.28097    0.89873    0.00000 
N116    N      N_R      0.07222    0.21537    0.90503    0.00000 
C117    C      C_R      0.11756    0.31977    0.83780    0.00000 
H118    H      H_       0.10004    0.32873    0.81470    0.00000 
C119    C      C_R      0.15864    0.33267    0.84457    0.00000 
C120    C      C_R      0.18342    0.31820    0.87847    0.00000 
H121    H      H_       0.01204    0.32593    0.88350    0.00000 
C122    C      C_R      0.08154    0.17303    0.84803    0.00000 
H123    H      H_       0.09902    0.16367    0.82593    0.00000 
C124    C      C_R      0.09606    0.20107    0.87390    0.00000 
H125    H      H_       0.12382    0.21043    0.86930    0.00000 
C126    C      C_R      0.10230    0.29363    0.86500    0.00000 
H127    H      H_       0.07442    0.28433    0.85970    0.00000 
C128    C      C_R      0.16570    0.29257    0.90457    0.00000 
H129    H      H_       0.18266    0.28277    0.92753    0.00000 
C130    C      C_R      0.03290    0.20150    0.91153    0.00000 
H131    H      H_       0.01586    0.21153    0.93357    0.00000 
C132    C      C_R      0.01652    0.17343    0.88753    0.00000 
H133    H      H_       0.18892    0.16417    0.89303    0.00000 
C134    C      C_R      0.04158    0.15900    0.85487    0.00000 
C135    C      C_R      0.17560    0.02977    0.81833    0.00000 
C136    C      C_R      0.02440    0.12873    0.82717    0.00000 
Ni137   Ni     Ni4+2    0.19896    0.08201    0.77981    0.00000 
O138    O      O_R      0.14826    0.21679    0.96430    0.00000 
O139    O      O_R      0.05098    0.28897    0.95673    0.00000 
O140    O      O_R      0.08738    0.21592    0.99910    0.00000 
O141    O      O_R      0.11330    0.29340    0.99140    0.00000 
N142    N      N_R      0.02558    0.05237    0.73207    0.00000 
N143    N      N_R      0.17222    0.11797    0.73837    0.00000 
C144    C      C_R      0.01756    0.01357    0.67113    0.00000 
H145    H      H_       0.00004    0.00460    0.98137    0.00000 
C146    C      C_R      0.05864    0.00067    0.67790    0.00000 
C147    C      C_R      0.08342    0.01513    0.71180    0.00000 
H148    H      H_       0.11204    0.00740    0.71683    0.00000 
C149    C      C_R      0.18154    0.16030    0.68137    0.00000 
H150    H      H_       0.19902    0.16967    0.99260    0.00000 
C151    C      C_R      0.19606    0.13227    0.70723    0.00000 
H152    H      H_       0.02382    0.12290    0.70263    0.00000 
C153    C      C_R      0.00230    0.03970    0.69833    0.00000 
H154    H      H_       0.17442    0.04900    0.69303    0.00000 
C155    C      C_R      0.06570    0.04077    0.73790    0.00000 
H156    H      H_       0.08266    0.05057    0.76087    0.00000 
C157    C      C_R      0.13290    0.13183    0.74487    0.00000 
H158    H      H_       0.11586    0.12180    0.76690    0.00000 
C159    C      C_R      0.11652    0.15990    0.72087    0.00000 
H160    H      H_       0.08892    0.16917    0.72637    0.00000 
C161    C      C_R      0.14158    0.17433    0.68820    0.00000 
C162    C      C_R      0.07560    0.30357    0.98500    0.00000 
C163    C      C_R      0.12440    0.20460    0.99383    0.00000 
Ni164   Ni     Ni4+2    0.09896    0.58465    0.27981    0.00000 
O165    O      O_R      0.04826    0.44987    0.13097    0.00000 
O166    O      O_R      0.15098    0.37769    0.12340    0.00000 
O167    O      O_R      0.18738    0.45074    0.16577    0.00000 
O168    O      O_R      0.01330    0.37327    0.15807    0.00000 
N169    N      N_R      0.12558    0.61430    0.23207    0.00000 
N170    N      N_R      0.07222    0.54870    0.23837    0.00000 
C171    C      C_R      0.11756    0.65310    0.17113    0.00000 
H172    H      H_       0.10004    0.66207    0.14803    0.00000 
C173    C      C_R      0.15864    0.66600    0.17790    0.00000 
C174    C      C_R      0.18342    0.65153    0.21180    0.00000 
H175    H      H_       0.01204    0.65927    0.21683    0.00000 
C176    C      C_R      0.08154    0.50637    0.18137    0.00000 
H177    H      H_       0.09902    0.49700    0.15927    0.00000 
C178    C      C_R      0.09606    0.53440    0.20723    0.00000 
H179    H      H_       0.12382    0.54377    0.20263    0.00000 
C180    C      C_R      0.10230    0.62697    0.19833    0.00000 
H181    H      H_       0.07442    0.61767    0.19303    0.00000 
C182    C      C_R      0.16570    0.62590    0.23790    0.00000 
H183    H      H_       0.18266    0.61610    0.26087    0.00000 
C184    C      C_R      0.03290    0.53483    0.24487    0.00000 
H185    H      H_       0.01586    0.54487    0.26690    0.00000 
C186    C      C_R      0.01652    0.50677    0.22087    0.00000 
H187    H      H_       0.18892    0.49750    0.22637    0.00000 
C188    C      C_R      0.04158    0.49233    0.18820    0.00000 
C189    C      C_R      0.17560    0.36310    0.15167    0.00000 
C190    C      C_R      0.02440    0.46207    0.16050    0.00000 
Ni191   Ni     Ni4+2    0.19896    0.41535    0.11314    0.00000 
O192    O      O_R      0.14826    0.55013    0.29763    0.00000 
O193    O      O_R      0.05098    0.62231    0.29007    0.00000 
O194    O      O_R      0.08738    0.54926    0.33243    0.00000 
O195    O      O_R      0.11330    0.62673    0.32473    0.00000 
N196    N      N_R      0.02558    0.38570    0.06540    0.00000 
N197    N      N_R      0.17222    0.45130    0.07170    0.00000 
C198    C      C_R      0.01756    0.34690    0.00447    0.00000 
H199    H      H_       0.00004    0.33793    0.31470    0.00000 
C200    C      C_R      0.05864    0.33400    0.01123    0.00000 
C201    C      C_R      0.08342    0.34847    0.04513    0.00000 
H202    H      H_       0.11204    0.34073    0.05017    0.00000 
C203    C      C_R      0.18154    0.49363    0.01470    0.00000 
H204    H      H_       0.19902    0.50300    0.32593    0.00000 
C205    C      C_R      0.19606    0.46560    0.04057    0.00000 
H206    H      H_       0.02382    0.45623    0.03597    0.00000 
C207    C      C_R      0.00230    0.37303    0.03167    0.00000 
H208    H      H_       0.17442    0.38233    0.02637    0.00000 
C209    C      C_R      0.06570    0.37410    0.07123    0.00000 
H210    H      H_       0.08266    0.38390    0.09420    0.00000 
C211    C      C_R      0.13290    0.46517    0.07820    0.00000 
H212    H      H_       0.11586    0.45513    0.10023    0.00000 
C213    C      C_R      0.11652    0.49323    0.05420    0.00000 
H214    H      H_       0.08892    0.50250    0.05970    0.00000 
C215    C      C_R      0.14158    0.50767    0.02153    0.00000 
C216    C      C_R      0.07560    0.63690    0.31833    0.00000 
C217    C      C_R      0.12440    0.53793    0.32717    0.00000 
Ni218   Ni     Ni4+2    0.09896    0.58465    0.61314    0.00000 
O219    O      O_R      0.04826    0.44987    0.46430    0.00000 
O220    O      O_R      0.15098    0.37769    0.45673    0.00000 
O221    O      O_R      0.18738    0.45074    0.49910    0.00000 
O222    O      O_R      0.01330    0.37327    0.49140    0.00000 
N223    N      N_R      0.12558    0.61430    0.56540    0.00000 
N224    N      N_R      0.07222    0.54870    0.57170    0.00000 
C225    C      C_R      0.11756    0.65310    0.50447    0.00000 
H226    H      H_       0.10004    0.66207    0.48137    0.00000 
C227    C      C_R      0.15864    0.66600    0.51123    0.00000 
C228    C      C_R      0.18342    0.65153    0.54513    0.00000 
H229    H      H_       0.01204    0.65927    0.55017    0.00000 
C230    C      C_R      0.08154    0.50637    0.51470    0.00000 
H231    H      H_       0.09902    0.49700    0.49260    0.00000 
C232    C      C_R      0.09606    0.53440    0.54057    0.00000 
H233    H      H_       0.12382    0.54377    0.53597    0.00000 
C234    C      C_R      0.10230    0.62697    0.53167    0.00000 
H235    H      H_       0.07442    0.61767    0.52637    0.00000 
C236    C      C_R      0.16570    0.62590    0.57123    0.00000 
H237    H      H_       0.18266    0.61610    0.59420    0.00000 
C238    C      C_R      0.03290    0.53483    0.57820    0.00000 
H239    H      H_       0.01586    0.54487    0.60023    0.00000 
C240    C      C_R      0.01652    0.50677    0.55420    0.00000 
H241    H      H_       0.18892    0.49750    0.55970    0.00000 
C242    C      C_R      0.04158    0.49233    0.52153    0.00000 
C243    C      C_R      0.17560    0.36310    0.48500    0.00000 
C244    C      C_R      0.02440    0.46207    0.49383    0.00000 
Ni245   Ni     Ni4+2    0.19896    0.41535    0.44648    0.00000 
O246    O      O_R      0.14826    0.55013    0.63097    0.00000 
O247    O      O_R      0.05098    0.62231    0.62340    0.00000 
O248    O      O_R      0.08738    0.54926    0.66577    0.00000 
O249    O      O_R      0.11330    0.62673    0.65807    0.00000 
N250    N      N_R      0.02558    0.38570    0.39873    0.00000 
N251    N      N_R      0.17222    0.45130    0.40503    0.00000 
C252    C      C_R      0.01756    0.34690    0.33780    0.00000 
H253    H      H_       0.00004    0.33793    0.64803    0.00000 
C254    C      C_R      0.05864    0.33400    0.34457    0.00000 
C255    C      C_R      0.08342    0.34847    0.37847    0.00000 
H256    H      H_       0.11204    0.34073    0.38350    0.00000 
C257    C      C_R      0.18154    0.49363    0.34803    0.00000 
H258    H      H_       0.19902    0.50300    0.65927    0.00000 
C259    C      C_R      0.19606    0.46560    0.37390    0.00000 
H260    H      H_       0.02382    0.45623    0.36930    0.00000 
C261    C      C_R      0.00230    0.37303    0.36500    0.00000 
H262    H      H_       0.17442    0.38233    0.35970    0.00000 
C263    C      C_R      0.06570    0.37410    0.40457    0.00000 
H264    H      H_       0.08266    0.38390    0.42753    0.00000 
C265    C      C_R      0.13290    0.46517    0.41153    0.00000 
H266    H      H_       0.11586    0.45513    0.43357    0.00000 
C267    C      C_R      0.11652    0.49323    0.38753    0.00000 
H268    H      H_       0.08892    0.50250    0.39303    0.00000 
C269    C      C_R      0.14158    0.50767    0.35487    0.00000 
C270    C      C_R      0.07560    0.63690    0.65167    0.00000 
C271    C      C_R      0.12440    0.53793    0.66050    0.00000 
Ni272   Ni     Ni4+2    0.09896    0.58465    0.94648    0.00000 
O273    O      O_R      0.04826    0.44987    0.79763    0.00000 
O274    O      O_R      0.15098    0.37769    0.79007    0.00000 
O275    O      O_R      0.18738    0.45074    0.83243    0.00000 
O276    O      O_R      0.01330    0.37327    0.82473    0.00000 
N277    N      N_R      0.12558    0.61430    0.89873    0.00000 
N278    N      N_R      0.07222    0.54870    0.90503    0.00000 
C279    C      C_R      0.11756    0.65310    0.83780    0.00000 
H280    H      H_       0.10004    0.66207    0.81470    0.00000 
C281    C      C_R      0.15864    0.66600    0.84457    0.00000 
C282    C      C_R      0.18342    0.65153    0.87847    0.00000 
H283    H      H_       0.01204    0.65927    0.88350    0.00000 
C284    C      C_R      0.08154    0.50637    0.84803    0.00000 
H285    H      H_       0.09902    0.49700    0.82593    0.00000 
C286    C      C_R      0.09606    0.53440    0.87390    0.00000 
H287    H      H_       0.12382    0.54377    0.86930    0.00000 
C288    C      C_R      0.10230    0.62697    0.86500    0.00000 
H289    H      H_       0.07442    0.61767    0.85970    0.00000 
C290    C      C_R      0.16570    0.62590    0.90457    0.00000 
H291    H      H_       0.18266    0.61610    0.92753    0.00000 
C292    C      C_R      0.03290    0.53483    0.91153    0.00000 
H293    H      H_       0.01586    0.54487    0.93357    0.00000 
C294    C      C_R      0.01652    0.50677    0.88753    0.00000 
H295    H      H_       0.18892    0.49750    0.89303    0.00000 
C296    C      C_R      0.04158    0.49233    0.85487    0.00000 
C297    C      C_R      0.17560    0.36310    0.81833    0.00000 
C298    C      C_R      0.02440    0.46207    0.82717    0.00000 
Ni299   Ni     Ni4+2    0.19896    0.41535    0.77981    0.00000 
O300    O      O_R      0.14826    0.55013    0.96430    0.00000 
O301    O      O_R      0.05098    0.62231    0.95673    0.00000 
O302    O      O_R      0.08738    0.54926    0.99910    0.00000 
O303    O      O_R      0.11330    0.62673    0.99140    0.00000 
N304    N      N_R      0.02558    0.38570    0.73207    0.00000 
N305    N      N_R      0.17222    0.45130    0.73837    0.00000 
C306    C      C_R      0.01756    0.34690    0.67113    0.00000 
H307    H      H_       0.00004    0.33793    0.98137    0.00000 
C308    C      C_R      0.05864    0.33400    0.67790    0.00000 
C309    C      C_R      0.08342    0.34847    0.71180    0.00000 
H310    H      H_       0.11204    0.34073    0.71683    0.00000 
C311    C      C_R      0.18154    0.49363    0.68137    0.00000 
H312    H      H_       0.19902    0.50300    0.99260    0.00000 
C313    C      C_R      0.19606    0.46560    0.70723    0.00000 
H314    H      H_       0.02382    0.45623    0.70263    0.00000 
C315    C      C_R      0.00230    0.37303    0.69833    0.00000 
H316    H      H_       0.17442    0.38233    0.69303    0.00000 
C317    C      C_R      0.06570    0.37410    0.73790    0.00000 
H318    H      H_       0.08266    0.38390    0.76087    0.00000 
C319    C      C_R      0.13290    0.46517    0.74487    0.00000 
H320    H      H_       0.11586    0.45513    0.76690    0.00000 
C321    C      C_R      0.11652    0.49323    0.72087    0.00000 
H322    H      H_       0.08892    0.50250    0.72637    0.00000 
C323    C      C_R      0.14158    0.50767    0.68820    0.00000 
C324    C      C_R      0.07560    0.63690    0.98500    0.00000 
C325    C      C_R      0.12440    0.53793    0.99383    0.00000 
Ni326   Ni     Ni4+2    0.09896    0.91799    0.27981    0.00000 
O327    O      O_R      0.04826    0.78321    0.13097    0.00000 
O328    O      O_R      0.15098    0.71103    0.12340    0.00000 
O329    O      O_R      0.18738    0.78408    0.16577    0.00000 
O330    O      O_R      0.01330    0.70660    0.15807    0.00000 
N331    N      N_R      0.12558    0.94763    0.23207    0.00000 
N332    N      N_R      0.07222    0.88203    0.23837    0.00000 
C333    C      C_R      0.11756    0.98643    0.17113    0.00000 
H334    H      H_       0.10004    0.99540    0.14803    0.00000 
C335    C      C_R      0.15864    0.99933    0.17790    0.00000 
C336    C      C_R      0.18342    0.98487    0.21180    0.00000 
H337    H      H_       0.01204    0.99260    0.21683    0.00000 
C338    C      C_R      0.08154    0.83970    0.18137    0.00000 
H339    H      H_       0.09902    0.83033    0.15927    0.00000 
C340    C      C_R      0.09606    0.86773    0.20723    0.00000 
H341    H      H_       0.12382    0.87710    0.20263    0.00000 
C342    C      C_R      0.10230    0.96030    0.19833    0.00000 
H343    H      H_       0.07442    0.95100    0.19303    0.00000 
C344    C      C_R      0.16570    0.95923    0.23790    0.00000 
H345    H      H_       0.18266    0.94943    0.26087    0.00000 
C346    C      C_R      0.03290    0.86817    0.24487    0.00000 
H347    H      H_       0.01586    0.87820    0.26690    0.00000 
C348    C      C_R      0.01652    0.84010    0.22087    0.00000 
H349    H      H_       0.18892    0.83083    0.22637    0.00000 
C350    C      C_R      0.04158    0.82567    0.18820    0.00000 
C351    C      C_R      0.17560    0.69643    0.15167    0.00000 
C352    C      C_R      0.02440    0.79540    0.16050    0.00000 
Ni353   Ni     Ni4+2    0.19896    0.74868    0.11314    0.00000 
O354    O      O_R      0.14826    0.88346    0.29763    0.00000 
O355    O      O_R      0.05098    0.95564    0.29007    0.00000 
O356    O      O_R      0.08738    0.88259    0.33243    0.00000 
O357    O      O_R      0.11330    0.96007    0.32473    0.00000 
N358    N      N_R      0.02558    0.71903    0.06540    0.00000 
N359    N      N_R      0.17222    0.78463    0.07170    0.00000 
C360    C      C_R      0.01756    0.68023    0.00447    0.00000 
H361    H      H_       0.00004    0.67127    0.31470    0.00000 
C362    C      C_R      0.05864    0.66733    0.01123    0.00000 
C363    C      C_R      0.08342    0.68180    0.04513    0.00000 
H364    H      H_       0.11204    0.67407    0.05017    0.00000 
C365    C      C_R      0.18154    0.82697    0.01470    0.00000 
H366    H      H_       0.19902    0.83633    0.32593    0.00000 
C367    C      C_R      0.19606    0.79893    0.04057    0.00000 
H368    H      H_       0.02382    0.78957    0.03597    0.00000 
C369    C      C_R      0.00230    0.70637    0.03167    0.00000 
H370    H      H_       0.17442    0.71567    0.02637    0.00000 
C371    C      C_R      0.06570    0.70743    0.07123    0.00000 
H372    H      H_       0.08266    0.71723    0.09420    0.00000 
C373    C      C_R      0.13290    0.79850    0.07820    0.00000 
H374    H      H_       0.11586    0.78847    0.10023    0.00000 
C375    C      C_R      0.11652    0.82657    0.05420    0.00000 
H376    H      H_       0.08892    0.83583    0.05970    0.00000 
C377    C      C_R      0.14158    0.84100    0.02153    0.00000 
C378    C      C_R      0.07560    0.97023    0.31833    0.00000 
C379    C      C_R      0.12440    0.87127    0.32717    0.00000 
Ni380   Ni     Ni4+2    0.09896    0.91799    0.61314    0.00000 
O381    O      O_R      0.04826    0.78321    0.46430    0.00000 
O382    O      O_R      0.15098    0.71103    0.45673    0.00000 
O383    O      O_R      0.18738    0.78408    0.49910    0.00000 
O384    O      O_R      0.01330    0.70660    0.49140    0.00000 
N385    N      N_R      0.12558    0.94763    0.56540    0.00000 
N386    N      N_R      0.07222    0.88203    0.57170    0.00000 
C387    C      C_R      0.11756    0.98643    0.50447    0.00000 
H388    H      H_       0.10004    0.99540    0.48137    0.00000 
C389    C      C_R      0.15864    0.99933    0.51123    0.00000 
C390    C      C_R      0.18342    0.98487    0.54513    0.00000 
H391    H      H_       0.01204    0.99260    0.55017    0.00000 
C392    C      C_R      0.08154    0.83970    0.51470    0.00000 
H393    H      H_       0.09902    0.83033    0.49260    0.00000 
C394    C      C_R      0.09606    0.86773    0.54057    0.00000 
H395    H      H_       0.12382    0.87710    0.53597    0.00000 
C396    C      C_R      0.10230    0.96030    0.53167    0.00000 
H397    H      H_       0.07442    0.95100    0.52637    0.00000 
C398    C      C_R      0.16570    0.95923    0.57123    0.00000 
H399    H      H_       0.18266    0.94943    0.59420    0.00000 
C400    C      C_R      0.03290    0.86817    0.57820    0.00000 
H401    H      H_       0.01586    0.87820    0.60023    0.00000 
C402    C      C_R      0.01652    0.84010    0.55420    0.00000 
H403    H      H_       0.18892    0.83083    0.55970    0.00000 
C404    C      C_R      0.04158    0.82567    0.52153    0.00000 
C405    C      C_R      0.17560    0.69643    0.48500    0.00000 
C406    C      C_R      0.02440    0.79540    0.49383    0.00000 
Ni407   Ni     Ni4+2    0.19896    0.74868    0.44648    0.00000 
O408    O      O_R      0.14826    0.88346    0.63097    0.00000 
O409    O      O_R      0.05098    0.95564    0.62340    0.00000 
O410    O      O_R      0.08738    0.88259    0.66577    0.00000 
O411    O      O_R      0.11330    0.96007    0.65807    0.00000 
N412    N      N_R      0.02558    0.71903    0.39873    0.00000 
N413    N      N_R      0.17222    0.78463    0.40503    0.00000 
C414    C      C_R      0.01756    0.68023    0.33780    0.00000 
H415    H      H_       0.00004    0.67127    0.64803    0.00000 
C416    C      C_R      0.05864    0.66733    0.34457    0.00000 
C417    C      C_R      0.08342    0.68180    0.37847    0.00000 
H418    H      H_       0.11204    0.67407    0.38350    0.00000 
C419    C      C_R      0.18154    0.82697    0.34803    0.00000 
H420    H      H_       0.19902    0.83633    0.65927    0.00000 
C421    C      C_R      0.19606    0.79893    0.37390    0.00000 
H422    H      H_       0.02382    0.78957    0.36930    0.00000 
C423    C      C_R      0.00230    0.70637    0.36500    0.00000 
H424    H      H_       0.17442    0.71567    0.35970    0.00000 
C425    C      C_R      0.06570    0.70743    0.40457    0.00000 
H426    H      H_       0.08266    0.71723    0.42753    0.00000 
C427    C      C_R      0.13290    0.79850    0.41153    0.00000 
H428    H      H_       0.11586    0.78847    0.43357    0.00000 
C429    C      C_R      0.11652    0.82657    0.38753    0.00000 
H430    H      H_       0.08892    0.83583    0.39303    0.00000 
C431    C      C_R      0.14158    0.84100    0.35487    0.00000 
C432    C      C_R      0.07560    0.97023    0.65167    0.00000 
C433    C      C_R      0.12440    0.87127    0.66050    0.00000 
Ni434   Ni     Ni4+2    0.09896    0.91799    0.94648    0.00000 
O435    O      O_R      0.04826    0.78321    0.79763    0.00000 
O436    O      O_R      0.15098    0.71103    0.79007    0.00000 
O437    O      O_R      0.18738    0.78408    0.83243    0.00000 
O438    O      O_R      0.01330    0.70660    0.82473    0.00000 
N439    N      N_R      0.12558    0.94763    0.89873    0.00000 
N440    N      N_R      0.07222    0.88203    0.90503    0.00000 
C441    C      C_R      0.11756    0.98643    0.83780    0.00000 
H442    H      H_       0.10004    0.99540    0.81470    0.00000 
C443    C      C_R      0.15864    0.99933    0.84457    0.00000 
C444    C      C_R      0.18342    0.98487    0.87847    0.00000 
H445    H      H_       0.01204    0.99260    0.88350    0.00000 
C446    C      C_R      0.08154    0.83970    0.84803    0.00000 
H447    H      H_       0.09902    0.83033    0.82593    0.00000 
C448    C      C_R      0.09606    0.86773    0.87390    0.00000 
H449    H      H_       0.12382    0.87710    0.86930    0.00000 
C450    C      C_R      0.10230    0.96030    0.86500    0.00000 
H451    H      H_       0.07442    0.95100    0.85970    0.00000 
C452    C      C_R      0.16570    0.95923    0.90457    0.00000 
H453    H      H_       0.18266    0.94943    0.92753    0.00000 
C454    C      C_R      0.03290    0.86817    0.91153    0.00000 
H455    H      H_       0.01586    0.87820    0.93357    0.00000 
C456    C      C_R      0.01652    0.84010    0.88753    0.00000 
H457    H      H_       0.18892    0.83083    0.89303    0.00000 
C458    C      C_R      0.04158    0.82567    0.85487    0.00000 
C459    C      C_R      0.17560    0.69643    0.81833    0.00000 
C460    C      C_R      0.02440    0.79540    0.82717    0.00000 
Ni461   Ni     Ni4+2    0.19896    0.74868    0.77981    0.00000 
O462    O      O_R      0.14826    0.88346    0.96430    0.00000 
O463    O      O_R      0.05098    0.95564    0.95673    0.00000 
O464    O      O_R      0.08738    0.88259    0.99910    0.00000 
O465    O      O_R      0.11330    0.96007    0.99140    0.00000 
N466    N      N_R      0.02558    0.71903    0.73207    0.00000 
N467    N      N_R      0.17222    0.78463    0.73837    0.00000 
C468    C      C_R      0.01756    0.68023    0.67113    0.00000 
H469    H      H_       0.00004    0.67127    0.98137    0.00000 
C470    C      C_R      0.05864    0.66733    0.67790    0.00000 
C471    C      C_R      0.08342    0.68180    0.71180    0.00000 
H472    H      H_       0.11204    0.67407    0.71683    0.00000 
C473    C      C_R      0.18154    0.82697    0.68137    0.00000 
H474    H      H_       0.19902    0.83633    0.99260    0.00000 
C475    C      C_R      0.19606    0.79893    0.70723    0.00000 
H476    H      H_       0.02382    0.78957    0.70263    0.00000 
C477    C      C_R      0.00230    0.70637    0.69833    0.00000 
H478    H      H_       0.17442    0.71567    0.69303    0.00000 
C479    C      C_R      0.06570    0.70743    0.73790    0.00000 
H480    H      H_       0.08266    0.71723    0.76087    0.00000 
C481    C      C_R      0.13290    0.79850    0.74487    0.00000 
H482    H      H_       0.11586    0.78847    0.76690    0.00000 
C483    C      C_R      0.11652    0.82657    0.72087    0.00000 
H484    H      H_       0.08892    0.83583    0.72637    0.00000 
C485    C      C_R      0.14158    0.84100    0.68820    0.00000 
C486    C      C_R      0.07560    0.97023    0.98500    0.00000 
C487    C      C_R      0.12440    0.87127    0.99383    0.00000 
Ni488   Ni     Ni4+2    0.29896    0.25132    0.27981    0.00000 
O489    O      O_R      0.24826    0.11654    0.13097    0.00000 
O490    O      O_R      0.35098    0.04436    0.12340    0.00000 
O491    O      O_R      0.38738    0.11741    0.16577    0.00000 
O492    O      O_R      0.21330    0.03993    0.15807    0.00000 
N493    N      N_R      0.32558    0.28097    0.23207    0.00000 
N494    N      N_R      0.27222    0.21537    0.23837    0.00000 
C495    C      C_R      0.31756    0.31977    0.17113    0.00000 
H496    H      H_       0.30004    0.32873    0.14803    0.00000 
C497    C      C_R      0.35864    0.33267    0.17790    0.00000 
C498    C      C_R      0.38342    0.31820    0.21180    0.00000 
H499    H      H_       0.21204    0.32593    0.21683    0.00000 
C500    C      C_R      0.28154    0.17303    0.18137    0.00000 
H501    H      H_       0.29902    0.16367    0.15927    0.00000 
C502    C      C_R      0.29606    0.20107    0.20723    0.00000 
H503    H      H_       0.32382    0.21043    0.20263    0.00000 
C504    C      C_R      0.30230    0.29363    0.19833    0.00000 
H505    H      H_       0.27442    0.28433    0.19303    0.00000 
C506    C      C_R      0.36570    0.29257    0.23790    0.00000 
H507    H      H_       0.38266    0.28277    0.26087    0.00000 
C508    C      C_R      0.23290    0.20150    0.24487    0.00000 
H509    H      H_       0.21586    0.21153    0.26690    0.00000 
C510    C      C_R      0.21652    0.17343    0.22087    0.00000 
H511    H      H_       0.38892    0.16417    0.22637    0.00000 
C512    C      C_R      0.24158    0.15900    0.18820    0.00000 
C513    C      C_R      0.37560    0.02977    0.15167    0.00000 
C514    C      C_R      0.22440    0.12873    0.16050    0.00000 
Ni515   Ni     Ni4+2    0.39896    0.08201    0.11314    0.00000 
O516    O      O_R      0.34826    0.21679    0.29763    0.00000 
O517    O      O_R      0.25098    0.28897    0.29007    0.00000 
O518    O      O_R      0.28738    0.21592    0.33243    0.00000 
O519    O      O_R      0.31330    0.29340    0.32473    0.00000 
N520    N      N_R      0.22558    0.05237    0.06540    0.00000 
N521    N      N_R      0.37222    0.11797    0.07170    0.00000 
C522    C      C_R      0.21756    0.01357    0.00447    0.00000 
H523    H      H_       0.20004    0.00460    0.31470    0.00000 
C524    C      C_R      0.25864    0.00067    0.01123    0.00000 
C525    C      C_R      0.28342    0.01513    0.04513    0.00000 
H526    H      H_       0.31204    0.00740    0.05017    0.00000 
C527    C      C_R      0.38154    0.16030    0.01470    0.00000 
H528    H      H_       0.39902    0.16967    0.32593    0.00000 
C529    C      C_R      0.39606    0.13227    0.04057    0.00000 
H530    H      H_       0.22382    0.12290    0.03597    0.00000 
C531    C      C_R      0.20230    0.03970    0.03167    0.00000 
H532    H      H_       0.37442    0.04900    0.02637    0.00000 
C533    C      C_R      0.26570    0.04077    0.07123    0.00000 
H534    H      H_       0.28266    0.05057    0.09420    0.00000 
C535    C      C_R      0.33290    0.13183    0.07820    0.00000 
H536    H      H_       0.31586    0.12180    0.10023    0.00000 
C537    C      C_R      0.31652    0.15990    0.05420    0.00000 
H538    H      H_       0.28892    0.16917    0.05970    0.00000 
C539    C      C_R      0.34158    0.17433    0.02153    0.00000 
C540    C      C_R      0.27560    0.30357    0.31833    0.00000 
C541    C      C_R      0.32440    0.20460    0.32717    0.00000 
Ni542   Ni     Ni4+2    0.29896    0.25132    0.61314    0.00000 
O543    O      O_R      0.24826    0.11654    0.46430    0.00000 
O544    O      O_R      0.35098    0.04436    0.45673    0.00000 
O545    O      O_R      0.38738    0.11741    0.49910    0.00000 
O546    O      O_R      0.21330    0.03993    0.49140    0.00000 
N547    N      N_R      0.32558    0.28097    0.56540    0.00000 
N548    N      N_R      0.27222    0.21537    0.57170    0.00000 
C549    C      C_R      0.31756    0.31977    0.50447    0.00000 
H550    H      H_       0.30004    0.32873    0.48137    0.00000 
C551    C      C_R      0.35864    0.33267    0.51123    0.00000 
C552    C      C_R      0.38342    0.31820    0.54513    0.00000 
H553    H      H_       0.21204    0.32593    0.55017    0.00000 
C554    C      C_R      0.28154    0.17303    0.51470    0.00000 
H555    H      H_       0.29902    0.16367    0.49260    0.00000 
C556    C      C_R      0.29606    0.20107    0.54057    0.00000 
H557    H      H_       0.32382    0.21043    0.53597    0.00000 
C558    C      C_R      0.30230    0.29363    0.53167    0.00000 
H559    H      H_       0.27442    0.28433    0.52637    0.00000 
C560    C      C_R      0.36570    0.29257    0.57123    0.00000 
H561    H      H_       0.38266    0.28277    0.59420    0.00000 
C562    C      C_R      0.23290    0.20150    0.57820    0.00000 
H563    H      H_       0.21586    0.21153    0.60023    0.00000 
C564    C      C_R      0.21652    0.17343    0.55420    0.00000 
H565    H      H_       0.38892    0.16417    0.55970    0.00000 
C566    C      C_R      0.24158    0.15900    0.52153    0.00000 
C567    C      C_R      0.37560    0.02977    0.48500    0.00000 
C568    C      C_R      0.22440    0.12873    0.49383    0.00000 
Ni569   Ni     Ni4+2    0.39896    0.08201    0.44648    0.00000 
O570    O      O_R      0.34826    0.21679    0.63097    0.00000 
O571    O      O_R      0.25098    0.28897    0.62340    0.00000 
O572    O      O_R      0.28738    0.21592    0.66577    0.00000 
O573    O      O_R      0.31330    0.29340    0.65807    0.00000 
N574    N      N_R      0.22558    0.05237    0.39873    0.00000 
N575    N      N_R      0.37222    0.11797    0.40503    0.00000 
C576    C      C_R      0.21756    0.01357    0.33780    0.00000 
H577    H      H_       0.20004    0.00460    0.64803    0.00000 
C578    C      C_R      0.25864    0.00067    0.34457    0.00000 
C579    C      C_R      0.28342    0.01513    0.37847    0.00000 
H580    H      H_       0.31204    0.00740    0.38350    0.00000 
C581    C      C_R      0.38154    0.16030    0.34803    0.00000 
H582    H      H_       0.39902    0.16967    0.65927    0.00000 
C583    C      C_R      0.39606    0.13227    0.37390    0.00000 
H584    H      H_       0.22382    0.12290    0.36930    0.00000 
C585    C      C_R      0.20230    0.03970    0.36500    0.00000 
H586    H      H_       0.37442    0.04900    0.35970    0.00000 
C587    C      C_R      0.26570    0.04077    0.40457    0.00000 
H588    H      H_       0.28266    0.05057    0.42753    0.00000 
C589    C      C_R      0.33290    0.13183    0.41153    0.00000 
H590    H      H_       0.31586    0.12180    0.43357    0.00000 
C591    C      C_R      0.31652    0.15990    0.38753    0.00000 
H592    H      H_       0.28892    0.16917    0.39303    0.00000 
C593    C      C_R      0.34158    0.17433    0.35487    0.00000 
C594    C      C_R      0.27560    0.30357    0.65167    0.00000 
C595    C      C_R      0.32440    0.20460    0.66050    0.00000 
Ni596   Ni     Ni4+2    0.29896    0.25132    0.94648    0.00000 
O597    O      O_R      0.24826    0.11654    0.79763    0.00000 
O598    O      O_R      0.35098    0.04436    0.79007    0.00000 
O599    O      O_R      0.38738    0.11741    0.83243    0.00000 
O600    O      O_R      0.21330    0.03993    0.82473    0.00000 
N601    N      N_R      0.32558    0.28097    0.89873    0.00000 
N602    N      N_R      0.27222    0.21537    0.90503    0.00000 
C603    C      C_R      0.31756    0.31977    0.83780    0.00000 
H604    H      H_       0.30004    0.32873    0.81470    0.00000 
C605    C      C_R      0.35864    0.33267    0.84457    0.00000 
C606    C      C_R      0.38342    0.31820    0.87847    0.00000 
H607    H      H_       0.21204    0.32593    0.88350    0.00000 
C608    C      C_R      0.28154    0.17303    0.84803    0.00000 
H609    H      H_       0.29902    0.16367    0.82593    0.00000 
C610    C      C_R      0.29606    0.20107    0.87390    0.00000 
H611    H      H_       0.32382    0.21043    0.86930    0.00000 
C612    C      C_R      0.30230    0.29363    0.86500    0.00000 
H613    H      H_       0.27442    0.28433    0.85970    0.00000 
C614    C      C_R      0.36570    0.29257    0.90457    0.00000 
H615    H      H_       0.38266    0.28277    0.92753    0.00000 
C616    C      C_R      0.23290    0.20150    0.91153    0.00000 
H617    H      H_       0.21586    0.21153    0.93357    0.00000 
C618    C      C_R      0.21652    0.17343    0.88753    0.00000 
H619    H      H_       0.38892    0.16417    0.89303    0.00000 
C620    C      C_R      0.24158    0.15900    0.85487    0.00000 
C621    C      C_R      0.37560    0.02977    0.81833    0.00000 
C622    C      C_R      0.22440    0.12873    0.82717    0.00000 
Ni623   Ni     Ni4+2    0.39896    0.08201    0.77981    0.00000 
O624    O      O_R      0.34826    0.21679    0.96430    0.00000 
O625    O      O_R      0.25098    0.28897    0.95673    0.00000 
O626    O      O_R      0.28738    0.21592    0.99910    0.00000 
O627    O      O_R      0.31330    0.29340    0.99140    0.00000 
N628    N      N_R      0.22558    0.05237    0.73207    0.00000 
N629    N      N_R      0.37222    0.11797    0.73837    0.00000 
C630    C      C_R      0.21756    0.01357    0.67113    0.00000 
H631    H      H_       0.20004    0.00460    0.98137    0.00000 
C632    C      C_R      0.25864    0.00067    0.67790    0.00000 
C633    C      C_R      0.28342    0.01513    0.71180    0.00000 
H634    H      H_       0.31204    0.00740    0.71683    0.00000 
C635    C      C_R      0.38154    0.16030    0.68137    0.00000 
H636    H      H_       0.39902    0.16967    0.99260    0.00000 
C637    C      C_R      0.39606    0.13227    0.70723    0.00000 
H638    H      H_       0.22382    0.12290    0.70263    0.00000 
C639    C      C_R      0.20230    0.03970    0.69833    0.00000 
H640    H      H_       0.37442    0.04900    0.69303    0.00000 
C641    C      C_R      0.26570    0.04077    0.73790    0.00000 
H642    H      H_       0.28266    0.05057    0.76087    0.00000 
C643    C      C_R      0.33290    0.13183    0.74487    0.00000 
H644    H      H_       0.31586    0.12180    0.76690    0.00000 
C645    C      C_R      0.31652    0.15990    0.72087    0.00000 
H646    H      H_       0.28892    0.16917    0.72637    0.00000 
C647    C      C_R      0.34158    0.17433    0.68820    0.00000 
C648    C      C_R      0.27560    0.30357    0.98500    0.00000 
C649    C      C_R      0.32440    0.20460    0.99383    0.00000 
Ni650   Ni     Ni4+2    0.29896    0.58465    0.27981    0.00000 
O651    O      O_R      0.24826    0.44987    0.13097    0.00000 
O652    O      O_R      0.35098    0.37769    0.12340    0.00000 
O653    O      O_R      0.38738    0.45074    0.16577    0.00000 
O654    O      O_R      0.21330    0.37327    0.15807    0.00000 
N655    N      N_R      0.32558    0.61430    0.23207    0.00000 
N656    N      N_R      0.27222    0.54870    0.23837    0.00000 
C657    C      C_R      0.31756    0.65310    0.17113    0.00000 
H658    H      H_       0.30004    0.66207    0.14803    0.00000 
C659    C      C_R      0.35864    0.66600    0.17790    0.00000 
C660    C      C_R      0.38342    0.65153    0.21180    0.00000 
H661    H      H_       0.21204    0.65927    0.21683    0.00000 
C662    C      C_R      0.28154    0.50637    0.18137    0.00000 
H663    H      H_       0.29902    0.49700    0.15927    0.00000 
C664    C      C_R      0.29606    0.53440    0.20723    0.00000 
H665    H      H_       0.32382    0.54377    0.20263    0.00000 
C666    C      C_R      0.30230    0.62697    0.19833    0.00000 
H667    H      H_       0.27442    0.61767    0.19303    0.00000 
C668    C      C_R      0.36570    0.62590    0.23790    0.00000 
H669    H      H_       0.38266    0.61610    0.26087    0.00000 
C670    C      C_R      0.23290    0.53483    0.24487    0.00000 
H671    H      H_       0.21586    0.54487    0.26690    0.00000 
C672    C      C_R      0.21652    0.50677    0.22087    0.00000 
H673    H      H_       0.38892    0.49750    0.22637    0.00000 
C674    C      C_R      0.24158    0.49233    0.18820    0.00000 
C675    C      C_R      0.37560    0.36310    0.15167    0.00000 
C676    C      C_R      0.22440    0.46207    0.16050    0.00000 
Ni677   Ni     Ni4+2    0.39896    0.41535    0.11314    0.00000 
O678    O      O_R      0.34826    0.55013    0.29763    0.00000 
O679    O      O_R      0.25098    0.62231    0.29007    0.00000 
O680    O      O_R      0.28738    0.54926    0.33243    0.00000 
O681    O      O_R      0.31330    0.62673    0.32473    0.00000 
N682    N      N_R      0.22558    0.38570    0.06540    0.00000 
N683    N      N_R      0.37222    0.45130    0.07170    0.00000 
C684    C      C_R      0.21756    0.34690    0.00447    0.00000 
H685    H      H_       0.20004    0.33793    0.31470    0.00000 
C686    C      C_R      0.25864    0.33400    0.01123    0.00000 
C687    C      C_R      0.28342    0.34847    0.04513    0.00000 
H688    H      H_       0.31204    0.34073    0.05017    0.00000 
C689    C      C_R      0.38154    0.49363    0.01470    0.00000 
H690    H      H_       0.39902    0.50300    0.32593    0.00000 
C691    C      C_R      0.39606    0.46560    0.04057    0.00000 
H692    H      H_       0.22382    0.45623    0.03597    0.00000 
C693    C      C_R      0.20230    0.37303    0.03167    0.00000 
H694    H      H_       0.37442    0.38233    0.02637    0.00000 
C695    C      C_R      0.26570    0.37410    0.07123    0.00000 
H696    H      H_       0.28266    0.38390    0.09420    0.00000 
C697    C      C_R      0.33290    0.46517    0.07820    0.00000 
H698    H      H_       0.31586    0.45513    0.10023    0.00000 
C699    C      C_R      0.31652    0.49323    0.05420    0.00000 
H700    H      H_       0.28892    0.50250    0.05970    0.00000 
C701    C      C_R      0.34158    0.50767    0.02153    0.00000 
C702    C      C_R      0.27560    0.63690    0.31833    0.00000 
C703    C      C_R      0.32440    0.53793    0.32717    0.00000 
Ni704   Ni     Ni4+2    0.29896    0.58465    0.61314    0.00000 
O705    O      O_R      0.24826    0.44987    0.46430    0.00000 
O706    O      O_R      0.35098    0.37769    0.45673    0.00000 
O707    O      O_R      0.38738    0.45074    0.49910    0.00000 
O708    O      O_R      0.21330    0.37327    0.49140    0.00000 
N709    N      N_R      0.32558    0.61430    0.56540    0.00000 
N710    N      N_R      0.27222    0.54870    0.57170    0.00000 
C711    C      C_R      0.31756    0.65310    0.50447    0.00000 
H712    H      H_       0.30004    0.66207    0.48137    0.00000 
C713    C      C_R      0.35864    0.66600    0.51123    0.00000 
C714    C      C_R      0.38342    0.65153    0.54513    0.00000 
H715    H      H_       0.21204    0.65927    0.55017    0.00000 
C716    C      C_R      0.28154    0.50637    0.51470    0.00000 
H717    H      H_       0.29902    0.49700    0.49260    0.00000 
C718    C      C_R      0.29606    0.53440    0.54057    0.00000 
H719    H      H_       0.32382    0.54377    0.53597    0.00000 
C720    C      C_R      0.30230    0.62697    0.53167    0.00000 
H721    H      H_       0.27442    0.61767    0.52637    0.00000 
C722    C      C_R      0.36570    0.62590    0.57123    0.00000 
H723    H      H_       0.38266    0.61610    0.59420    0.00000 
C724    C      C_R      0.23290    0.53483    0.57820    0.00000 
H725    H      H_       0.21586    0.54487    0.60023    0.00000 
C726    C      C_R      0.21652    0.50677    0.55420    0.00000 
H727    H      H_       0.38892    0.49750    0.55970    0.00000 
C728    C      C_R      0.24158    0.49233    0.52153    0.00000 
C729    C      C_R      0.37560    0.36310    0.48500    0.00000 
C730    C      C_R      0.22440    0.46207    0.49383    0.00000 
Ni731   Ni     Ni4+2    0.39896    0.41535    0.44648    0.00000 
O732    O      O_R      0.34826    0.55013    0.63097    0.00000 
O733    O      O_R      0.25098    0.62231    0.62340    0.00000 
O734    O      O_R      0.28738    0.54926    0.66577    0.00000 
O735    O      O_R      0.31330    0.62673    0.65807    0.00000 
N736    N      N_R      0.22558    0.38570    0.39873    0.00000 
N737    N      N_R      0.37222    0.45130    0.40503    0.00000 
C738    C      C_R      0.21756    0.34690    0.33780    0.00000 
H739    H      H_       0.20004    0.33793    0.64803    0.00000 
C740    C      C_R      0.25864    0.33400    0.34457    0.00000 
C741    C      C_R      0.28342    0.34847    0.37847    0.00000 
H742    H      H_       0.31204    0.34073    0.38350    0.00000 
C743    C      C_R      0.38154    0.49363    0.34803    0.00000 
H744    H      H_       0.39902    0.50300    0.65927    0.00000 
C745    C      C_R      0.39606    0.46560    0.37390    0.00000 
H746    H      H_       0.22382    0.45623    0.36930    0.00000 
C747    C      C_R      0.20230    0.37303    0.36500    0.00000 
H748    H      H_       0.37442    0.38233    0.35970    0.00000 
C749    C      C_R      0.26570    0.37410    0.40457    0.00000 
H750    H      H_       0.28266    0.38390    0.42753    0.00000 
C751    C      C_R      0.33290    0.46517    0.41153    0.00000 
H752    H      H_       0.31586    0.45513    0.43357    0.00000 
C753    C      C_R      0.31652    0.49323    0.38753    0.00000 
H754    H      H_       0.28892    0.50250    0.39303    0.00000 
C755    C      C_R      0.34158    0.50767    0.35487    0.00000 
C756    C      C_R      0.27560    0.63690    0.65167    0.00000 
C757    C      C_R      0.32440    0.53793    0.66050    0.00000 
Ni758   Ni     Ni4+2    0.29896    0.58465    0.94648    0.00000 
O759    O      O_R      0.24826    0.44987    0.79763    0.00000 
O760    O      O_R      0.35098    0.37769    0.79007    0.00000 
O761    O      O_R      0.38738    0.45074    0.83243    0.00000 
O762    O      O_R      0.21330    0.37327    0.82473    0.00000 
N763    N      N_R      0.32558    0.61430    0.89873    0.00000 
N764    N      N_R      0.27222    0.54870    0.90503    0.00000 
C765    C      C_R      0.31756    0.65310    0.83780    0.00000 
H766    H      H_       0.30004    0.66207    0.81470    0.00000 
C767    C      C_R      0.35864    0.66600    0.84457    0.00000 
C768    C      C_R      0.38342    0.65153    0.87847    0.00000 
H769    H      H_       0.21204    0.65927    0.88350    0.00000 
C770    C      C_R      0.28154    0.50637    0.84803    0.00000 
H771    H      H_       0.29902    0.49700    0.82593    0.00000 
C772    C      C_R      0.29606    0.53440    0.87390    0.00000 
H773    H      H_       0.32382    0.54377    0.86930    0.00000 
C774    C      C_R      0.30230    0.62697    0.86500    0.00000 
H775    H      H_       0.27442    0.61767    0.85970    0.00000 
C776    C      C_R      0.36570    0.62590    0.90457    0.00000 
H777    H      H_       0.38266    0.61610    0.92753    0.00000 
C778    C      C_R      0.23290    0.53483    0.91153    0.00000 
H779    H      H_       0.21586    0.54487    0.93357    0.00000 
C780    C      C_R      0.21652    0.50677    0.88753    0.00000 
H781    H      H_       0.38892    0.49750    0.89303    0.00000 
C782    C      C_R      0.24158    0.49233    0.85487    0.00000 
C783    C      C_R      0.37560    0.36310    0.81833    0.00000 
C784    C      C_R      0.22440    0.46207    0.82717    0.00000 
Ni785   Ni     Ni4+2    0.39896    0.41535    0.77981    0.00000 
O786    O      O_R      0.34826    0.55013    0.96430    0.00000 
O787    O      O_R      0.25098    0.62231    0.95673    0.00000 
O788    O      O_R      0.28738    0.54926    0.99910    0.00000 
O789    O      O_R      0.31330    0.62673    0.99140    0.00000 
N790    N      N_R      0.22558    0.38570    0.73207    0.00000 
N791    N      N_R      0.37222    0.45130    0.73837    0.00000 
C792    C      C_R      0.21756    0.34690    0.67113    0.00000 
H793    H      H_       0.20004    0.33793    0.98137    0.00000 
C794    C      C_R      0.25864    0.33400    0.67790    0.00000 
C795    C      C_R      0.28342    0.34847    0.71180    0.00000 
H796    H      H_       0.31204    0.34073    0.71683    0.00000 
C797    C      C_R      0.38154    0.49363    0.68137    0.00000 
H798    H      H_       0.39902    0.50300    0.99260    0.00000 
C799    C      C_R      0.39606    0.46560    0.70723    0.00000 
H800    H      H_       0.22382    0.45623    0.70263    0.00000 
C801    C      C_R      0.20230    0.37303    0.69833    0.00000 
H802    H      H_       0.37442    0.38233    0.69303    0.00000 
C803    C      C_R      0.26570    0.37410    0.73790    0.00000 
H804    H      H_       0.28266    0.38390    0.76087    0.00000 
C805    C      C_R      0.33290    0.46517    0.74487    0.00000 
H806    H      H_       0.31586    0.45513    0.76690    0.00000 
C807    C      C_R      0.31652    0.49323    0.72087    0.00000 
H808    H      H_       0.28892    0.50250    0.72637    0.00000 
C809    C      C_R      0.34158    0.50767    0.68820    0.00000 
C810    C      C_R      0.27560    0.63690    0.98500    0.00000 
C811    C      C_R      0.32440    0.53793    0.99383    0.00000 
Ni812   Ni     Ni4+2    0.29896    0.91799    0.27981    0.00000 
O813    O      O_R      0.24826    0.78321    0.13097    0.00000 
O814    O      O_R      0.35098    0.71103    0.12340    0.00000 
O815    O      O_R      0.38738    0.78408    0.16577    0.00000 
O816    O      O_R      0.21330    0.70660    0.15807    0.00000 
N817    N      N_R      0.32558    0.94763    0.23207    0.00000 
N818    N      N_R      0.27222    0.88203    0.23837    0.00000 
C819    C      C_R      0.31756    0.98643    0.17113    0.00000 
H820    H      H_       0.30004    0.99540    0.14803    0.00000 
C821    C      C_R      0.35864    0.99933    0.17790    0.00000 
C822    C      C_R      0.38342    0.98487    0.21180    0.00000 
H823    H      H_       0.21204    0.99260    0.21683    0.00000 
C824    C      C_R      0.28154    0.83970    0.18137    0.00000 
H825    H      H_       0.29902    0.83033    0.15927    0.00000 
C826    C      C_R      0.29606    0.86773    0.20723    0.00000 
H827    H      H_       0.32382    0.87710    0.20263    0.00000 
C828    C      C_R      0.30230    0.96030    0.19833    0.00000 
H829    H      H_       0.27442    0.95100    0.19303    0.00000 
C830    C      C_R      0.36570    0.95923    0.23790    0.00000 
H831    H      H_       0.38266    0.94943    0.26087    0.00000 
C832    C      C_R      0.23290    0.86817    0.24487    0.00000 
H833    H      H_       0.21586    0.87820    0.26690    0.00000 
C834    C      C_R      0.21652    0.84010    0.22087    0.00000 
H835    H      H_       0.38892    0.83083    0.22637    0.00000 
C836    C      C_R      0.24158    0.82567    0.18820    0.00000 
C837    C      C_R      0.37560    0.69643    0.15167    0.00000 
C838    C      C_R      0.22440    0.79540    0.16050    0.00000 
Ni839   Ni     Ni4+2    0.39896    0.74868    0.11314    0.00000 
O840    O      O_R      0.34826    0.88346    0.29763    0.00000 
O841    O      O_R      0.25098    0.95564    0.29007    0.00000 
O842    O      O_R      0.28738    0.88259    0.33243    0.00000 
O843    O      O_R      0.31330    0.96007    0.32473    0.00000 
N844    N      N_R      0.22558    0.71903    0.06540    0.00000 
N845    N      N_R      0.37222    0.78463    0.07170    0.00000 
C846    C      C_R      0.21756    0.68023    0.00447    0.00000 
H847    H      H_       0.20004    0.67127    0.31470    0.00000 
C848    C      C_R      0.25864    0.66733    0.01123    0.00000 
C849    C      C_R      0.28342    0.68180    0.04513    0.00000 
H850    H      H_       0.31204    0.67407    0.05017    0.00000 
C851    C      C_R      0.38154    0.82697    0.01470    0.00000 
H852    H      H_       0.39902    0.83633    0.32593    0.00000 
C853    C      C_R      0.39606    0.79893    0.04057    0.00000 
H854    H      H_       0.22382    0.78957    0.03597    0.00000 
C855    C      C_R      0.20230    0.70637    0.03167    0.00000 
H856    H      H_       0.37442    0.71567    0.02637    0.00000 
C857    C      C_R      0.26570    0.70743    0.07123    0.00000 
H858    H      H_       0.28266    0.71723    0.09420    0.00000 
C859    C      C_R      0.33290    0.79850    0.07820    0.00000 
H860    H      H_       0.31586    0.78847    0.10023    0.00000 
C861    C      C_R      0.31652    0.82657    0.05420    0.00000 
H862    H      H_       0.28892    0.83583    0.05970    0.00000 
C863    C      C_R      0.34158    0.84100    0.02153    0.00000 
C864    C      C_R      0.27560    0.97023    0.31833    0.00000 
C865    C      C_R      0.32440    0.87127    0.32717    0.00000 
Ni866   Ni     Ni4+2    0.29896    0.91799    0.61314    0.00000 
O867    O      O_R      0.24826    0.78321    0.46430    0.00000 
O868    O      O_R      0.35098    0.71103    0.45673    0.00000 
O869    O      O_R      0.38738    0.78408    0.49910    0.00000 
O870    O      O_R      0.21330    0.70660    0.49140    0.00000 
N871    N      N_R      0.32558    0.94763    0.56540    0.00000 
N872    N      N_R      0.27222    0.88203    0.57170    0.00000 
C873    C      C_R      0.31756    0.98643    0.50447    0.00000 
H874    H      H_       0.30004    0.99540    0.48137    0.00000 
C875    C      C_R      0.35864    0.99933    0.51123    0.00000 
C876    C      C_R      0.38342    0.98487    0.54513    0.00000 
H877    H      H_       0.21204    0.99260    0.55017    0.00000 
C878    C      C_R      0.28154    0.83970    0.51470    0.00000 
H879    H      H_       0.29902    0.83033    0.49260    0.00000 
C880    C      C_R      0.29606    0.86773    0.54057    0.00000 
H881    H      H_       0.32382    0.87710    0.53597    0.00000 
C882    C      C_R      0.30230    0.96030    0.53167    0.00000 
H883    H      H_       0.27442    0.95100    0.52637    0.00000 
C884    C      C_R      0.36570    0.95923    0.57123    0.00000 
H885    H      H_       0.38266    0.94943    0.59420    0.00000 
C886    C      C_R      0.23290    0.86817    0.57820    0.00000 
H887    H      H_       0.21586    0.87820    0.60023    0.00000 
C888    C      C_R      0.21652    0.84010    0.55420    0.00000 
H889    H      H_       0.38892    0.83083    0.55970    0.00000 
C890    C      C_R      0.24158    0.82567    0.52153    0.00000 
C891    C      C_R      0.37560    0.69643    0.48500    0.00000 
C892    C      C_R      0.22440    0.79540    0.49383    0.00000 
Ni893   Ni     Ni4+2    0.39896    0.74868    0.44648    0.00000 
O894    O      O_R      0.34826    0.88346    0.63097    0.00000 
O895    O      O_R      0.25098    0.95564    0.62340    0.00000 
O896    O      O_R      0.28738    0.88259    0.66577    0.00000 
O897    O      O_R      0.31330    0.96007    0.65807    0.00000 
N898    N      N_R      0.22558    0.71903    0.39873    0.00000 
N899    N      N_R      0.37222    0.78463    0.40503    0.00000 
C900    C      C_R      0.21756    0.68023    0.33780    0.00000 
H901    H      H_       0.20004    0.67127    0.64803    0.00000 
C902    C      C_R      0.25864    0.66733    0.34457    0.00000 
C903    C      C_R      0.28342    0.68180    0.37847    0.00000 
H904    H      H_       0.31204    0.67407    0.38350    0.00000 
C905    C      C_R      0.38154    0.82697    0.34803    0.00000 
H906    H      H_       0.39902    0.83633    0.65927    0.00000 
C907    C      C_R      0.39606    0.79893    0.37390    0.00000 
H908    H      H_       0.22382    0.78957    0.36930    0.00000 
C909    C      C_R      0.20230    0.70637    0.36500    0.00000 
H910    H      H_       0.37442    0.71567    0.35970    0.00000 
C911    C      C_R      0.26570    0.70743    0.40457    0.00000 
H912    H      H_       0.28266    0.71723    0.42753    0.00000 
C913    C      C_R      0.33290    0.79850    0.41153    0.00000 
H914    H      H_       0.31586    0.78847    0.43357    0.00000 
C915    C      C_R      0.31652    0.82657    0.38753    0.00000 
H916    H      H_       0.28892    0.83583    0.39303    0.00000 
C917    C      C_R      0.34158    0.84100    0.35487    0.00000 
C918    C      C_R      0.27560    0.97023    0.65167    0.00000 
C919    C      C_R      0.32440    0.87127    0.66050    0.00000 
Ni920   Ni     Ni4+2    0.29896    0.91799    0.94648    0.00000 
O921    O      O_R      0.24826    0.78321    0.79763    0.00000 
O922    O      O_R      0.35098    0.71103    0.79007    0.00000 
O923    O      O_R      0.38738    0.78408    0.83243    0.00000 
O924    O      O_R      0.21330    0.70660    0.82473    0.00000 
N925    N      N_R      0.32558    0.94763    0.89873    0.00000 
N926    N      N_R      0.27222    0.88203    0.90503    0.00000 
C927    C      C_R      0.31756    0.98643    0.83780    0.00000 
H928    H      H_       0.30004    0.99540    0.81470    0.00000 
C929    C      C_R      0.35864    0.99933    0.84457    0.00000 
C930    C      C_R      0.38342    0.98487    0.87847    0.00000 
H931    H      H_       0.21204    0.99260    0.88350    0.00000 
C932    C      C_R      0.28154    0.83970    0.84803    0.00000 
H933    H      H_       0.29902    0.83033    0.82593    0.00000 
C934    C      C_R      0.29606    0.86773    0.87390    0.00000 
H935    H      H_       0.32382    0.87710    0.86930    0.00000 
C936    C      C_R      0.30230    0.96030    0.86500    0.00000 
H937    H      H_       0.27442    0.95100    0.85970    0.00000 
C938    C      C_R      0.36570    0.95923    0.90457    0.00000 
H939    H      H_       0.38266    0.94943    0.92753    0.00000 
C940    C      C_R      0.23290    0.86817    0.91153    0.00000 
H941    H      H_       0.21586    0.87820    0.93357    0.00000 
C942    C      C_R      0.21652    0.84010    0.88753    0.00000 
H943    H      H_       0.38892    0.83083    0.89303    0.00000 
C944    C      C_R      0.24158    0.82567    0.85487    0.00000 
C945    C      C_R      0.37560    0.69643    0.81833    0.00000 
C946    C      C_R      0.22440    0.79540    0.82717    0.00000 
Ni947   Ni     Ni4+2    0.39896    0.74868    0.77981    0.00000 
O948    O      O_R      0.34826    0.88346    0.96430    0.00000 
O949    O      O_R      0.25098    0.95564    0.95673    0.00000 
O950    O      O_R      0.28738    0.88259    0.99910    0.00000 
O951    O      O_R      0.31330    0.96007    0.99140    0.00000 
N952    N      N_R      0.22558    0.71903    0.73207    0.00000 
N953    N      N_R      0.37222    0.78463    0.73837    0.00000 
C954    C      C_R      0.21756    0.68023    0.67113    0.00000 
H955    H      H_       0.20004    0.67127    0.98137    0.00000 
C956    C      C_R      0.25864    0.66733    0.67790    0.00000 
C957    C      C_R      0.28342    0.68180    0.71180    0.00000 
H958    H      H_       0.31204    0.67407    0.71683    0.00000 
C959    C      C_R      0.38154    0.82697    0.68137    0.00000 
H960    H      H_       0.39902    0.83633    0.99260    0.00000 
C961    C      C_R      0.39606    0.79893    0.70723    0.00000 
H962    H      H_       0.22382    0.78957    0.70263    0.00000 
C963    C      C_R      0.20230    0.70637    0.69833    0.00000 
H964    H      H_       0.37442    0.71567    0.69303    0.00000 
C965    C      C_R      0.26570    0.70743    0.73790    0.00000 
H966    H      H_       0.28266    0.71723    0.76087    0.00000 
C967    C      C_R      0.33290    0.79850    0.74487    0.00000 
H968    H      H_       0.31586    0.78847    0.76690    0.00000 
C969    C      C_R      0.31652    0.82657    0.72087    0.00000 
H970    H      H_       0.28892    0.83583    0.72637    0.00000 
C971    C      C_R      0.34158    0.84100    0.68820    0.00000 
C972    C      C_R      0.27560    0.97023    0.98500    0.00000 
C973    C      C_R      0.32440    0.87127    0.99383    0.00000 
Ni974   Ni     Ni4+2    0.49896    0.25132    0.27981    0.00000 
O975    O      O_R      0.44826    0.11654    0.13097    0.00000 
O976    O      O_R      0.55098    0.04436    0.12340    0.00000 
O977    O      O_R      0.58738    0.11741    0.16577    0.00000 
O978    O      O_R      0.41330    0.03993    0.15807    0.00000 
N979    N      N_R      0.52558    0.28097    0.23207    0.00000 
N980    N      N_R      0.47222    0.21537    0.23837    0.00000 
C981    C      C_R      0.51756    0.31977    0.17113    0.00000 
H982    H      H_       0.50004    0.32873    0.14803    0.00000 
C983    C      C_R      0.55864    0.33267    0.17790    0.00000 
C984    C      C_R      0.58342    0.31820    0.21180    0.00000 
H985    H      H_       0.41204    0.32593    0.21683    0.00000 
C986    C      C_R      0.48154    0.17303    0.18137    0.00000 
H987    H      H_       0.49902    0.16367    0.15927    0.00000 
C988    C      C_R      0.49606    0.20107    0.20723    0.00000 
H989    H      H_       0.52382    0.21043    0.20263    0.00000 
C990    C      C_R      0.50230    0.29363    0.19833    0.00000 
H991    H      H_       0.47442    0.28433    0.19303    0.00000 
C992    C      C_R      0.56570    0.29257    0.23790    0.00000 
H993    H      H_       0.58266    0.28277    0.26087    0.00000 
C994    C      C_R      0.43290    0.20150    0.24487    0.00000 
H995    H      H_       0.41586    0.21153    0.26690    0.00000 
C996    C      C_R      0.41652    0.17343    0.22087    0.00000 
H997    H      H_       0.58892    0.16417    0.22637    0.00000 
C998    C      C_R      0.44158    0.15900    0.18820    0.00000 
C999    C      C_R      0.57560    0.02977    0.15167    0.00000 
C1000   C      C_R      0.42440    0.12873    0.16050    0.00000 
Ni1001  Ni     Ni4+2    0.59896    0.08201    0.11314    0.00000 
O1002   O      O_R      0.54826    0.21679    0.29763    0.00000 
O1003   O      O_R      0.45098    0.28897    0.29007    0.00000 
O1004   O      O_R      0.48738    0.21592    0.33243    0.00000 
O1005   O      O_R      0.51330    0.29340    0.32473    0.00000 
N1006   N      N_R      0.42558    0.05237    0.06540    0.00000 
N1007   N      N_R      0.57222    0.11797    0.07170    0.00000 
C1008   C      C_R      0.41756    0.01357    0.00447    0.00000 
H1009   H      H_       0.40004    0.00460    0.31470    0.00000 
C1010   C      C_R      0.45864    0.00067    0.01123    0.00000 
C1011   C      C_R      0.48342    0.01513    0.04513    0.00000 
H1012   H      H_       0.51204    0.00740    0.05017    0.00000 
C1013   C      C_R      0.58154    0.16030    0.01470    0.00000 
H1014   H      H_       0.59902    0.16967    0.32593    0.00000 
C1015   C      C_R      0.59606    0.13227    0.04057    0.00000 
H1016   H      H_       0.42382    0.12290    0.03597    0.00000 
C1017   C      C_R      0.40230    0.03970    0.03167    0.00000 
H1018   H      H_       0.57442    0.04900    0.02637    0.00000 
C1019   C      C_R      0.46570    0.04077    0.07123    0.00000 
H1020   H      H_       0.48266    0.05057    0.09420    0.00000 
C1021   C      C_R      0.53290    0.13183    0.07820    0.00000 
H1022   H      H_       0.51586    0.12180    0.10023    0.00000 
C1023   C      C_R      0.51652    0.15990    0.05420    0.00000 
H1024   H      H_       0.48892    0.16917    0.05970    0.00000 
C1025   C      C_R      0.54158    0.17433    0.02153    0.00000 
C1026   C      C_R      0.47560    0.30357    0.31833    0.00000 
C1027   C      C_R      0.52440    0.20460    0.32717    0.00000 
Ni1028  Ni     Ni4+2    0.49896    0.25132    0.61314    0.00000 
O1029   O      O_R      0.44826    0.11654    0.46430    0.00000 
O1030   O      O_R      0.55098    0.04436    0.45673    0.00000 
O1031   O      O_R      0.58738    0.11741    0.49910    0.00000 
O1032   O      O_R      0.41330    0.03993    0.49140    0.00000 
N1033   N      N_R      0.52558    0.28097    0.56540    0.00000 
N1034   N      N_R      0.47222    0.21537    0.57170    0.00000 
C1035   C      C_R      0.51756    0.31977    0.50447    0.00000 
H1036   H      H_       0.50004    0.32873    0.48137    0.00000 
C1037   C      C_R      0.55864    0.33267    0.51123    0.00000 
C1038   C      C_R      0.58342    0.31820    0.54513    0.00000 
H1039   H      H_       0.41204    0.32593    0.55017    0.00000 
C1040   C      C_R      0.48154    0.17303    0.51470    0.00000 
H1041   H      H_       0.49902    0.16367    0.49260    0.00000 
C1042   C      C_R      0.49606    0.20107    0.54057    0.00000 
H1043   H      H_       0.52382    0.21043    0.53597    0.00000 
C1044   C      C_R      0.50230    0.29363    0.53167    0.00000 
H1045   H      H_       0.47442    0.28433    0.52637    0.00000 
C1046   C      C_R      0.56570    0.29257    0.57123    0.00000 
H1047   H      H_       0.58266    0.28277    0.59420    0.00000 
C1048   C      C_R      0.43290    0.20150    0.57820    0.00000 
H1049   H      H_       0.41586    0.21153    0.60023    0.00000 
C1050   C      C_R      0.41652    0.17343    0.55420    0.00000 
H1051   H      H_       0.58892    0.16417    0.55970    0.00000 
C1052   C      C_R      0.44158    0.15900    0.52153    0.00000 
C1053   C      C_R      0.57560    0.02977    0.48500    0.00000 
C1054   C      C_R      0.42440    0.12873    0.49383    0.00000 
Ni1055  Ni     Ni4+2    0.59896    0.08201    0.44648    0.00000 
O1056   O      O_R      0.54826    0.21679    0.63097    0.00000 
O1057   O      O_R      0.45098    0.28897    0.62340    0.00000 
O1058   O      O_R      0.48738    0.21592    0.66577    0.00000 
O1059   O      O_R      0.51330    0.29340    0.65807    0.00000 
N1060   N      N_R      0.42558    0.05237    0.39873    0.00000 
N1061   N      N_R      0.57222    0.11797    0.40503    0.00000 
C1062   C      C_R      0.41756    0.01357    0.33780    0.00000 
H1063   H      H_       0.40004    0.00460    0.64803    0.00000 
C1064   C      C_R      0.45864    0.00067    0.34457    0.00000 
C1065   C      C_R      0.48342    0.01513    0.37847    0.00000 
H1066   H      H_       0.51204    0.00740    0.38350    0.00000 
C1067   C      C_R      0.58154    0.16030    0.34803    0.00000 
H1068   H      H_       0.59902    0.16967    0.65927    0.00000 
C1069   C      C_R      0.59606    0.13227    0.37390    0.00000 
H1070   H      H_       0.42382    0.12290    0.36930    0.00000 
C1071   C      C_R      0.40230    0.03970    0.36500    0.00000 
H1072   H      H_       0.57442    0.04900    0.35970    0.00000 
C1073   C      C_R      0.46570    0.04077    0.40457    0.00000 
H1074   H      H_       0.48266    0.05057    0.42753    0.00000 
C1075   C      C_R      0.53290    0.13183    0.41153    0.00000 
H1076   H      H_       0.51586    0.12180    0.43357    0.00000 
C1077   C      C_R      0.51652    0.15990    0.38753    0.00000 
H1078   H      H_       0.48892    0.16917    0.39303    0.00000 
C1079   C      C_R      0.54158    0.17433    0.35487    0.00000 
C1080   C      C_R      0.47560    0.30357    0.65167    0.00000 
C1081   C      C_R      0.52440    0.20460    0.66050    0.00000 
Ni1082  Ni     Ni4+2    0.49896    0.25132    0.94648    0.00000 
O1083   O      O_R      0.44826    0.11654    0.79763    0.00000 
O1084   O      O_R      0.55098    0.04436    0.79007    0.00000 
O1085   O      O_R      0.58738    0.11741    0.83243    0.00000 
O1086   O      O_R      0.41330    0.03993    0.82473    0.00000 
N1087   N      N_R      0.52558    0.28097    0.89873    0.00000 
N1088   N      N_R      0.47222    0.21537    0.90503    0.00000 
C1089   C      C_R      0.51756    0.31977    0.83780    0.00000 
H1090   H      H_       0.50004    0.32873    0.81470    0.00000 
C1091   C      C_R      0.55864    0.33267    0.84457    0.00000 
C1092   C      C_R      0.58342    0.31820    0.87847    0.00000 
H1093   H      H_       0.41204    0.32593    0.88350    0.00000 
C1094   C      C_R      0.48154    0.17303    0.84803    0.00000 
H1095   H      H_       0.49902    0.16367    0.82593    0.00000 
C1096   C      C_R      0.49606    0.20107    0.87390    0.00000 
H1097   H      H_       0.52382    0.21043    0.86930    0.00000 
C1098   C      C_R      0.50230    0.29363    0.86500    0.00000 
H1099   H      H_       0.47442    0.28433    0.85970    0.00000 
C1100   C      C_R      0.56570    0.29257    0.90457    0.00000 
H1101   H      H_       0.58266    0.28277    0.92753    0.00000 
C1102   C      C_R      0.43290    0.20150    0.91153    0.00000 
H1103   H      H_       0.41586    0.21153    0.93357    0.00000 
C1104   C      C_R      0.41652    0.17343    0.88753    0.00000 
H1105   H      H_       0.58892    0.16417    0.89303    0.00000 
C1106   C      C_R      0.44158    0.15900    0.85487    0.00000 
C1107   C      C_R      0.57560    0.02977    0.81833    0.00000 
C1108   C      C_R      0.42440    0.12873    0.82717    0.00000 
Ni1109  Ni     Ni4+2    0.59896    0.08201    0.77981    0.00000 
O1110   O      O_R      0.54826    0.21679    0.96430    0.00000 
O1111   O      O_R      0.45098    0.28897    0.95673    0.00000 
O1112   O      O_R      0.48738    0.21592    0.99910    0.00000 
O1113   O      O_R      0.51330    0.29340    0.99140    0.00000 
N1114   N      N_R      0.42558    0.05237    0.73207    0.00000 
N1115   N      N_R      0.57222    0.11797    0.73837    0.00000 
C1116   C      C_R      0.41756    0.01357    0.67113    0.00000 
H1117   H      H_       0.40004    0.00460    0.98137    0.00000 
C1118   C      C_R      0.45864    0.00067    0.67790    0.00000 
C1119   C      C_R      0.48342    0.01513    0.71180    0.00000 
H1120   H      H_       0.51204    0.00740    0.71683    0.00000 
C1121   C      C_R      0.58154    0.16030    0.68137    0.00000 
H1122   H      H_       0.59902    0.16967    0.99260    0.00000 
C1123   C      C_R      0.59606    0.13227    0.70723    0.00000 
H1124   H      H_       0.42382    0.12290    0.70263    0.00000 
C1125   C      C_R      0.40230    0.03970    0.69833    0.00000 
H1126   H      H_       0.57442    0.04900    0.69303    0.00000 
C1127   C      C_R      0.46570    0.04077    0.73790    0.00000 
H1128   H      H_       0.48266    0.05057    0.76087    0.00000 
C1129   C      C_R      0.53290    0.13183    0.74487    0.00000 
H1130   H      H_       0.51586    0.12180    0.76690    0.00000 
C1131   C      C_R      0.51652    0.15990    0.72087    0.00000 
H1132   H      H_       0.48892    0.16917    0.72637    0.00000 
C1133   C      C_R      0.54158    0.17433    0.68820    0.00000 
C1134   C      C_R      0.47560    0.30357    0.98500    0.00000 
C1135   C      C_R      0.52440    0.20460    0.99383    0.00000 
Ni1136  Ni     Ni4+2    0.49896    0.58465    0.27981    0.00000 
O1137   O      O_R      0.44826    0.44987    0.13097    0.00000 
O1138   O      O_R      0.55098    0.37769    0.12340    0.00000 
O1139   O      O_R      0.58738    0.45074    0.16577    0.00000 
O1140   O      O_R      0.41330    0.37327    0.15807    0.00000 
N1141   N      N_R      0.52558    0.61430    0.23207    0.00000 
N1142   N      N_R      0.47222    0.54870    0.23837    0.00000 
C1143   C      C_R      0.51756    0.65310    0.17113    0.00000 
H1144   H      H_       0.50004    0.66207    0.14803    0.00000 
C1145   C      C_R      0.55864    0.66600    0.17790    0.00000 
C1146   C      C_R      0.58342    0.65153    0.21180    0.00000 
H1147   H      H_       0.41204    0.65927    0.21683    0.00000 
C1148   C      C_R      0.48154    0.50637    0.18137    0.00000 
H1149   H      H_       0.49902    0.49700    0.15927    0.00000 
C1150   C      C_R      0.49606    0.53440    0.20723    0.00000 
H1151   H      H_       0.52382    0.54377    0.20263    0.00000 
C1152   C      C_R      0.50230    0.62697    0.19833    0.00000 
H1153   H      H_       0.47442    0.61767    0.19303    0.00000 
C1154   C      C_R      0.56570    0.62590    0.23790    0.00000 
H1155   H      H_       0.58266    0.61610    0.26087    0.00000 
C1156   C      C_R      0.43290    0.53483    0.24487    0.00000 
H1157   H      H_       0.41586    0.54487    0.26690    0.00000 
C1158   C      C_R      0.41652    0.50677    0.22087    0.00000 
H1159   H      H_       0.58892    0.49750    0.22637    0.00000 
C1160   C      C_R      0.44158    0.49233    0.18820    0.00000 
C1161   C      C_R      0.57560    0.36310    0.15167    0.00000 
C1162   C      C_R      0.42440    0.46207    0.16050    0.00000 
Ni1163  Ni     Ni4+2    0.59896    0.41535    0.11314    0.00000 
O1164   O      O_R      0.54826    0.55013    0.29763    0.00000 
O1165   O      O_R      0.45098    0.62231    0.29007    0.00000 
O1166   O      O_R      0.48738    0.54926    0.33243    0.00000 
O1167   O      O_R      0.51330    0.62673    0.32473    0.00000 
N1168   N      N_R      0.42558    0.38570    0.06540    0.00000 
N1169   N      N_R      0.57222    0.45130    0.07170    0.00000 
C1170   C      C_R      0.41756    0.34690    0.00447    0.00000 
H1171   H      H_       0.40004    0.33793    0.31470    0.00000 
C1172   C      C_R      0.45864    0.33400    0.01123    0.00000 
C1173   C      C_R      0.48342    0.34847    0.04513    0.00000 
H1174   H      H_       0.51204    0.34073    0.05017    0.00000 
C1175   C      C_R      0.58154    0.49363    0.01470    0.00000 
H1176   H      H_       0.59902    0.50300    0.32593    0.00000 
C1177   C      C_R      0.59606    0.46560    0.04057    0.00000 
H1178   H      H_       0.42382    0.45623    0.03597    0.00000 
C1179   C      C_R      0.40230    0.37303    0.03167    0.00000 
H1180   H      H_       0.57442    0.38233    0.02637    0.00000 
C1181   C      C_R      0.46570    0.37410    0.07123    0.00000 
H1182   H      H_       0.48266    0.38390    0.09420    0.00000 
C1183   C      C_R      0.53290    0.46517    0.07820    0.00000 
H1184   H      H_       0.51586    0.45513    0.10023    0.00000 
C1185   C      C_R      0.51652    0.49323    0.05420    0.00000 
H1186   H      H_       0.48892    0.50250    0.05970    0.00000 
C1187   C      C_R      0.54158    0.50767    0.02153    0.00000 
C1188   C      C_R      0.47560    0.63690    0.31833    0.00000 
C1189   C      C_R      0.52440    0.53793    0.32717    0.00000 
Ni1190  Ni     Ni4+2    0.49896    0.58465    0.61314    0.00000 
O1191   O      O_R      0.44826    0.44987    0.46430    0.00000 
O1192   O      O_R      0.55098    0.37769    0.45673    0.00000 
O1193   O      O_R      0.58738    0.45074    0.49910    0.00000 
O1194   O      O_R      0.41330    0.37327    0.49140    0.00000 
N1195   N      N_R      0.52558    0.61430    0.56540    0.00000 
N1196   N      N_R      0.47222    0.54870    0.57170    0.00000 
C1197   C      C_R      0.51756    0.65310    0.50447    0.00000 
H1198   H      H_       0.50004    0.66207    0.48137    0.00000 
C1199   C      C_R      0.55864    0.66600    0.51123    0.00000 
C1200   C      C_R      0.58342    0.65153    0.54513    0.00000 
H1201   H      H_       0.41204    0.65927    0.55017    0.00000 
C1202   C      C_R      0.48154    0.50637    0.51470    0.00000 
H1203   H      H_       0.49902    0.49700    0.49260    0.00000 
C1204   C      C_R      0.49606    0.53440    0.54057    0.00000 
H1205   H      H_       0.52382    0.54377    0.53597    0.00000 
C1206   C      C_R      0.50230    0.62697    0.53167    0.00000 
H1207   H      H_       0.47442    0.61767    0.52637    0.00000 
C1208   C      C_R      0.56570    0.62590    0.57123    0.00000 
H1209   H      H_       0.58266    0.61610    0.59420    0.00000 
C1210   C      C_R      0.43290    0.53483    0.57820    0.00000 
H1211   H      H_       0.41586    0.54487    0.60023    0.00000 
C1212   C      C_R      0.41652    0.50677    0.55420    0.00000 
H1213   H      H_       0.58892    0.49750    0.55970    0.00000 
C1214   C      C_R      0.44158    0.49233    0.52153    0.00000 
C1215   C      C_R      0.57560    0.36310    0.48500    0.00000 
C1216   C      C_R      0.42440    0.46207    0.49383    0.00000 
Ni1217  Ni     Ni4+2    0.59896    0.41535    0.44648    0.00000 
O1218   O      O_R      0.54826    0.55013    0.63097    0.00000 
O1219   O      O_R      0.45098    0.62231    0.62340    0.00000 
O1220   O      O_R      0.48738    0.54926    0.66577    0.00000 
O1221   O      O_R      0.51330    0.62673    0.65807    0.00000 
N1222   N      N_R      0.42558    0.38570    0.39873    0.00000 
N1223   N      N_R      0.57222    0.45130    0.40503    0.00000 
C1224   C      C_R      0.41756    0.34690    0.33780    0.00000 
H1225   H      H_       0.40004    0.33793    0.64803    0.00000 
C1226   C      C_R      0.45864    0.33400    0.34457    0.00000 
C1227   C      C_R      0.48342    0.34847    0.37847    0.00000 
H1228   H      H_       0.51204    0.34073    0.38350    0.00000 
C1229   C      C_R      0.58154    0.49363    0.34803    0.00000 
H1230   H      H_       0.59902    0.50300    0.65927    0.00000 
C1231   C      C_R      0.59606    0.46560    0.37390    0.00000 
H1232   H      H_       0.42382    0.45623    0.36930    0.00000 
C1233   C      C_R      0.40230    0.37303    0.36500    0.00000 
H1234   H      H_       0.57442    0.38233    0.35970    0.00000 
C1235   C      C_R      0.46570    0.37410    0.40457    0.00000 
H1236   H      H_       0.48266    0.38390    0.42753    0.00000 
C1237   C      C_R      0.53290    0.46517    0.41153    0.00000 
H1238   H      H_       0.51586    0.45513    0.43357    0.00000 
C1239   C      C_R      0.51652    0.49323    0.38753    0.00000 
H1240   H      H_       0.48892    0.50250    0.39303    0.00000 
C1241   C      C_R      0.54158    0.50767    0.35487    0.00000 
C1242   C      C_R      0.47560    0.63690    0.65167    0.00000 
C1243   C      C_R      0.52440    0.53793    0.66050    0.00000 
Ni1244  Ni     Ni4+2    0.49896    0.58465    0.94648    0.00000 
O1245   O      O_R      0.44826    0.44987    0.79763    0.00000 
O1246   O      O_R      0.55098    0.37769    0.79007    0.00000 
O1247   O      O_R      0.58738    0.45074    0.83243    0.00000 
O1248   O      O_R      0.41330    0.37327    0.82473    0.00000 
N1249   N      N_R      0.52558    0.61430    0.89873    0.00000 
N1250   N      N_R      0.47222    0.54870    0.90503    0.00000 
C1251   C      C_R      0.51756    0.65310    0.83780    0.00000 
H1252   H      H_       0.50004    0.66207    0.81470    0.00000 
C1253   C      C_R      0.55864    0.66600    0.84457    0.00000 
C1254   C      C_R      0.58342    0.65153    0.87847    0.00000 
H1255   H      H_       0.41204    0.65927    0.88350    0.00000 
C1256   C      C_R      0.48154    0.50637    0.84803    0.00000 
H1257   H      H_       0.49902    0.49700    0.82593    0.00000 
C1258   C      C_R      0.49606    0.53440    0.87390    0.00000 
H1259   H      H_       0.52382    0.54377    0.86930    0.00000 
C1260   C      C_R      0.50230    0.62697    0.86500    0.00000 
H1261   H      H_       0.47442    0.61767    0.85970    0.00000 
C1262   C      C_R      0.56570    0.62590    0.90457    0.00000 
H1263   H      H_       0.58266    0.61610    0.92753    0.00000 
C1264   C      C_R      0.43290    0.53483    0.91153    0.00000 
H1265   H      H_       0.41586    0.54487    0.93357    0.00000 
C1266   C      C_R      0.41652    0.50677    0.88753    0.00000 
H1267   H      H_       0.58892    0.49750    0.89303    0.00000 
C1268   C      C_R      0.44158    0.49233    0.85487    0.00000 
C1269   C      C_R      0.57560    0.36310    0.81833    0.00000 
C1270   C      C_R      0.42440    0.46207    0.82717    0.00000 
Ni1271  Ni     Ni4+2    0.59896    0.41535    0.77981    0.00000 
O1272   O      O_R      0.54826    0.55013    0.96430    0.00000 
O1273   O      O_R      0.45098    0.62231    0.95673    0.00000 
O1274   O      O_R      0.48738    0.54926    0.99910    0.00000 
O1275   O      O_R      0.51330    0.62673    0.99140    0.00000 
N1276   N      N_R      0.42558    0.38570    0.73207    0.00000 
N1277   N      N_R      0.57222    0.45130    0.73837    0.00000 
C1278   C      C_R      0.41756    0.34690    0.67113    0.00000 
H1279   H      H_       0.40004    0.33793    0.98137    0.00000 
C1280   C      C_R      0.45864    0.33400    0.67790    0.00000 
C1281   C      C_R      0.48342    0.34847    0.71180    0.00000 
H1282   H      H_       0.51204    0.34073    0.71683    0.00000 
C1283   C      C_R      0.58154    0.49363    0.68137    0.00000 
H1284   H      H_       0.59902    0.50300    0.99260    0.00000 
C1285   C      C_R      0.59606    0.46560    0.70723    0.00000 
H1286   H      H_       0.42382    0.45623    0.70263    0.00000 
C1287   C      C_R      0.40230    0.37303    0.69833    0.00000 
H1288   H      H_       0.57442    0.38233    0.69303    0.00000 
C1289   C      C_R      0.46570    0.37410    0.73790    0.00000 
H1290   H      H_       0.48266    0.38390    0.76087    0.00000 
C1291   C      C_R      0.53290    0.46517    0.74487    0.00000 
H1292   H      H_       0.51586    0.45513    0.76690    0.00000 
C1293   C      C_R      0.51652    0.49323    0.72087    0.00000 
H1294   H      H_       0.48892    0.50250    0.72637    0.00000 
C1295   C      C_R      0.54158    0.50767    0.68820    0.00000 
C1296   C      C_R      0.47560    0.63690    0.98500    0.00000 
C1297   C      C_R      0.52440    0.53793    0.99383    0.00000 
Ni1298  Ni     Ni4+2    0.49896    0.91799    0.27981    0.00000 
O1299   O      O_R      0.44826    0.78321    0.13097    0.00000 
O1300   O      O_R      0.55098    0.71103    0.12340    0.00000 
O1301   O      O_R      0.58738    0.78408    0.16577    0.00000 
O1302   O      O_R      0.41330    0.70660    0.15807    0.00000 
N1303   N      N_R      0.52558    0.94763    0.23207    0.00000 
N1304   N      N_R      0.47222    0.88203    0.23837    0.00000 
C1305   C      C_R      0.51756    0.98643    0.17113    0.00000 
H1306   H      H_       0.50004    0.99540    0.14803    0.00000 
C1307   C      C_R      0.55864    0.99933    0.17790    0.00000 
C1308   C      C_R      0.58342    0.98487    0.21180    0.00000 
H1309   H      H_       0.41204    0.99260    0.21683    0.00000 
C1310   C      C_R      0.48154    0.83970    0.18137    0.00000 
H1311   H      H_       0.49902    0.83033    0.15927    0.00000 
C1312   C      C_R      0.49606    0.86773    0.20723    0.00000 
H1313   H      H_       0.52382    0.87710    0.20263    0.00000 
C1314   C      C_R      0.50230    0.96030    0.19833    0.00000 
H1315   H      H_       0.47442    0.95100    0.19303    0.00000 
C1316   C      C_R      0.56570    0.95923    0.23790    0.00000 
H1317   H      H_       0.58266    0.94943    0.26087    0.00000 
C1318   C      C_R      0.43290    0.86817    0.24487    0.00000 
H1319   H      H_       0.41586    0.87820    0.26690    0.00000 
C1320   C      C_R      0.41652    0.84010    0.22087    0.00000 
H1321   H      H_       0.58892    0.83083    0.22637    0.00000 
C1322   C      C_R      0.44158    0.82567    0.18820    0.00000 
C1323   C      C_R      0.57560    0.69643    0.15167    0.00000 
C1324   C      C_R      0.42440    0.79540    0.16050    0.00000 
Ni1325  Ni     Ni4+2    0.59896    0.74868    0.11314    0.00000 
O1326   O      O_R      0.54826    0.88346    0.29763    0.00000 
O1327   O      O_R      0.45098    0.95564    0.29007    0.00000 
O1328   O      O_R      0.48738    0.88259    0.33243    0.00000 
O1329   O      O_R      0.51330    0.96007    0.32473    0.00000 
N1330   N      N_R      0.42558    0.71903    0.06540    0.00000 
N1331   N      N_R      0.57222    0.78463    0.07170    0.00000 
C1332   C      C_R      0.41756    0.68023    0.00447    0.00000 
H1333   H      H_       0.40004    0.67127    0.31470    0.00000 
C1334   C      C_R      0.45864    0.66733    0.01123    0.00000 
C1335   C      C_R      0.48342    0.68180    0.04513    0.00000 
H1336   H      H_       0.51204    0.67407    0.05017    0.00000 
C1337   C      C_R      0.58154    0.82697    0.01470    0.00000 
H1338   H      H_       0.59902    0.83633    0.32593    0.00000 
C1339   C      C_R      0.59606    0.79893    0.04057    0.00000 
H1340   H      H_       0.42382    0.78957    0.03597    0.00000 
C1341   C      C_R      0.40230    0.70637    0.03167    0.00000 
H1342   H      H_       0.57442    0.71567    0.02637    0.00000 
C1343   C      C_R      0.46570    0.70743    0.07123    0.00000 
H1344   H      H_       0.48266    0.71723    0.09420    0.00000 
C1345   C      C_R      0.53290    0.79850    0.07820    0.00000 
H1346   H      H_       0.51586    0.78847    0.10023    0.00000 
C1347   C      C_R      0.51652    0.82657    0.05420    0.00000 
H1348   H      H_       0.48892    0.83583    0.05970    0.00000 
C1349   C      C_R      0.54158    0.84100    0.02153    0.00000 
C1350   C      C_R      0.47560    0.97023    0.31833    0.00000 
C1351   C      C_R      0.52440    0.87127    0.32717    0.00000 
Ni1352  Ni     Ni4+2    0.49896    0.91799    0.61314    0.00000 
O1353   O      O_R      0.44826    0.78321    0.46430    0.00000 
O1354   O      O_R      0.55098    0.71103    0.45673    0.00000 
O1355   O      O_R      0.58738    0.78408    0.49910    0.00000 
O1356   O      O_R      0.41330    0.70660    0.49140    0.00000 
N1357   N      N_R      0.52558    0.94763    0.56540    0.00000 
N1358   N      N_R      0.47222    0.88203    0.57170    0.00000 
C1359   C      C_R      0.51756    0.98643    0.50447    0.00000 
H1360   H      H_       0.50004    0.99540    0.48137    0.00000 
C1361   C      C_R      0.55864    0.99933    0.51123    0.00000 
C1362   C      C_R      0.58342    0.98487    0.54513    0.00000 
H1363   H      H_       0.41204    0.99260    0.55017    0.00000 
C1364   C      C_R      0.48154    0.83970    0.51470    0.00000 
H1365   H      H_       0.49902    0.83033    0.49260    0.00000 
C1366   C      C_R      0.49606    0.86773    0.54057    0.00000 
H1367   H      H_       0.52382    0.87710    0.53597    0.00000 
C1368   C      C_R      0.50230    0.96030    0.53167    0.00000 
H1369   H      H_       0.47442    0.95100    0.52637    0.00000 
C1370   C      C_R      0.56570    0.95923    0.57123    0.00000 
H1371   H      H_       0.58266    0.94943    0.59420    0.00000 
C1372   C      C_R      0.43290    0.86817    0.57820    0.00000 
H1373   H      H_       0.41586    0.87820    0.60023    0.00000 
C1374   C      C_R      0.41652    0.84010    0.55420    0.00000 
H1375   H      H_       0.58892    0.83083    0.55970    0.00000 
C1376   C      C_R      0.44158    0.82567    0.52153    0.00000 
C1377   C      C_R      0.57560    0.69643    0.48500    0.00000 
C1378   C      C_R      0.42440    0.79540    0.49383    0.00000 
Ni1379  Ni     Ni4+2    0.59896    0.74868    0.44648    0.00000 
O1380   O      O_R      0.54826    0.88346    0.63097    0.00000 
O1381   O      O_R      0.45098    0.95564    0.62340    0.00000 
O1382   O      O_R      0.48738    0.88259    0.66577    0.00000 
O1383   O      O_R      0.51330    0.96007    0.65807    0.00000 
N1384   N      N_R      0.42558    0.71903    0.39873    0.00000 
N1385   N      N_R      0.57222    0.78463    0.40503    0.00000 
C1386   C      C_R      0.41756    0.68023    0.33780    0.00000 
H1387   H      H_       0.40004    0.67127    0.64803    0.00000 
C1388   C      C_R      0.45864    0.66733    0.34457    0.00000 
C1389   C      C_R      0.48342    0.68180    0.37847    0.00000 
H1390   H      H_       0.51204    0.67407    0.38350    0.00000 
C1391   C      C_R      0.58154    0.82697    0.34803    0.00000 
H1392   H      H_       0.59902    0.83633    0.65927    0.00000 
C1393   C      C_R      0.59606    0.79893    0.37390    0.00000 
H1394   H      H_       0.42382    0.78957    0.36930    0.00000 
C1395   C      C_R      0.40230    0.70637    0.36500    0.00000 
H1396   H      H_       0.57442    0.71567    0.35970    0.00000 
C1397   C      C_R      0.46570    0.70743    0.40457    0.00000 
H1398   H      H_       0.48266    0.71723    0.42753    0.00000 
C1399   C      C_R      0.53290    0.79850    0.41153    0.00000 
H1400   H      H_       0.51586    0.78847    0.43357    0.00000 
C1401   C      C_R      0.51652    0.82657    0.38753    0.00000 
H1402   H      H_       0.48892    0.83583    0.39303    0.00000 
C1403   C      C_R      0.54158    0.84100    0.35487    0.00000 
C1404   C      C_R      0.47560    0.97023    0.65167    0.00000 
C1405   C      C_R      0.52440    0.87127    0.66050    0.00000 
Ni1406  Ni     Ni4+2    0.49896    0.91799    0.94648    0.00000 
O1407   O      O_R      0.44826    0.78321    0.79763    0.00000 
O1408   O      O_R      0.55098    0.71103    0.79007    0.00000 
O1409   O      O_R      0.58738    0.78408    0.83243    0.00000 
O1410   O      O_R      0.41330    0.70660    0.82473    0.00000 
N1411   N      N_R      0.52558    0.94763    0.89873    0.00000 
N1412   N      N_R      0.47222    0.88203    0.90503    0.00000 
C1413   C      C_R      0.51756    0.98643    0.83780    0.00000 
H1414   H      H_       0.50004    0.99540    0.81470    0.00000 
C1415   C      C_R      0.55864    0.99933    0.84457    0.00000 
C1416   C      C_R      0.58342    0.98487    0.87847    0.00000 
H1417   H      H_       0.41204    0.99260    0.88350    0.00000 
C1418   C      C_R      0.48154    0.83970    0.84803    0.00000 
H1419   H      H_       0.49902    0.83033    0.82593    0.00000 
C1420   C      C_R      0.49606    0.86773    0.87390    0.00000 
H1421   H      H_       0.52382    0.87710    0.86930    0.00000 
C1422   C      C_R      0.50230    0.96030    0.86500    0.00000 
H1423   H      H_       0.47442    0.95100    0.85970    0.00000 
C1424   C      C_R      0.56570    0.95923    0.90457    0.00000 
H1425   H      H_       0.58266    0.94943    0.92753    0.00000 
C1426   C      C_R      0.43290    0.86817    0.91153    0.00000 
H1427   H      H_       0.41586    0.87820    0.93357    0.00000 
C1428   C      C_R      0.41652    0.84010    0.88753    0.00000 
H1429   H      H_       0.58892    0.83083    0.89303    0.00000 
C1430   C      C_R      0.44158    0.82567    0.85487    0.00000 
C1431   C      C_R      0.57560    0.69643    0.81833    0.00000 
C1432   C      C_R      0.42440    0.79540    0.82717    0.00000 
Ni1433  Ni     Ni4+2    0.59896    0.74868    0.77981    0.00000 
O1434   O      O_R      0.54826    0.88346    0.96430    0.00000 
O1435   O      O_R      0.45098    0.95564    0.95673    0.00000 
O1436   O      O_R      0.48738    0.88259    0.99910    0.00000 
O1437   O      O_R      0.51330    0.96007    0.99140    0.00000 
N1438   N      N_R      0.42558    0.71903    0.73207    0.00000 
N1439   N      N_R      0.57222    0.78463    0.73837    0.00000 
C1440   C      C_R      0.41756    0.68023    0.67113    0.00000 
H1441   H      H_       0.40004    0.67127    0.98137    0.00000 
C1442   C      C_R      0.45864    0.66733    0.67790    0.00000 
C1443   C      C_R      0.48342    0.68180    0.71180    0.00000 
H1444   H      H_       0.51204    0.67407    0.71683    0.00000 
C1445   C      C_R      0.58154    0.82697    0.68137    0.00000 
H1446   H      H_       0.59902    0.83633    0.99260    0.00000 
C1447   C      C_R      0.59606    0.79893    0.70723    0.00000 
H1448   H      H_       0.42382    0.78957    0.70263    0.00000 
C1449   C      C_R      0.40230    0.70637    0.69833    0.00000 
H1450   H      H_       0.57442    0.71567    0.69303    0.00000 
C1451   C      C_R      0.46570    0.70743    0.73790    0.00000 
H1452   H      H_       0.48266    0.71723    0.76087    0.00000 
C1453   C      C_R      0.53290    0.79850    0.74487    0.00000 
H1454   H      H_       0.51586    0.78847    0.76690    0.00000 
C1455   C      C_R      0.51652    0.82657    0.72087    0.00000 
H1456   H      H_       0.48892    0.83583    0.72637    0.00000 
C1457   C      C_R      0.54158    0.84100    0.68820    0.00000 
C1458   C      C_R      0.47560    0.97023    0.98500    0.00000 
C1459   C      C_R      0.52440    0.87127    0.99383    0.00000 
Ni1460  Ni     Ni4+2    0.69896    0.25132    0.27981    0.00000 
O1461   O      O_R      0.64826    0.11654    0.13097    0.00000 
O1462   O      O_R      0.75098    0.04436    0.12340    0.00000 
O1463   O      O_R      0.78738    0.11741    0.16577    0.00000 
O1464   O      O_R      0.61330    0.03993    0.15807    0.00000 
N1465   N      N_R      0.72558    0.28097    0.23207    0.00000 
N1466   N      N_R      0.67222    0.21537    0.23837    0.00000 
C1467   C      C_R      0.71756    0.31977    0.17113    0.00000 
H1468   H      H_       0.70004    0.32873    0.14803    0.00000 
C1469   C      C_R      0.75864    0.33267    0.17790    0.00000 
C1470   C      C_R      0.78342    0.31820    0.21180    0.00000 
H1471   H      H_       0.61204    0.32593    0.21683    0.00000 
C1472   C      C_R      0.68154    0.17303    0.18137    0.00000 
H1473   H      H_       0.69902    0.16367    0.15927    0.00000 
C1474   C      C_R      0.69606    0.20107    0.20723    0.00000 
H1475   H      H_       0.72382    0.21043    0.20263    0.00000 
C1476   C      C_R      0.70230    0.29363    0.19833    0.00000 
H1477   H      H_       0.67442    0.28433    0.19303    0.00000 
C1478   C      C_R      0.76570    0.29257    0.23790    0.00000 
H1479   H      H_       0.78266    0.28277    0.26087    0.00000 
C1480   C      C_R      0.63290    0.20150    0.24487    0.00000 
H1481   H      H_       0.61586    0.21153    0.26690    0.00000 
C1482   C      C_R      0.61652    0.17343    0.22087    0.00000 
H1483   H      H_       0.78892    0.16417    0.22637    0.00000 
C1484   C      C_R      0.64158    0.15900    0.18820    0.00000 
C1485   C      C_R      0.77560    0.02977    0.15167    0.00000 
C1486   C      C_R      0.62440    0.12873    0.16050    0.00000 
Ni1487  Ni     Ni4+2    0.79896    0.08201    0.11314    0.00000 
O1488   O      O_R      0.74826    0.21679    0.29763    0.00000 
O1489   O      O_R      0.65098    0.28897    0.29007    0.00000 
O1490   O      O_R      0.68738    0.21592    0.33243    0.00000 
O1491   O      O_R      0.71330    0.29340    0.32473    0.00000 
N1492   N      N_R      0.62558    0.05237    0.06540    0.00000 
N1493   N      N_R      0.77222    0.11797    0.07170    0.00000 
C1494   C      C_R      0.61756    0.01357    0.00447    0.00000 
H1495   H      H_       0.60004    0.00460    0.31470    0.00000 
C1496   C      C_R      0.65864    0.00067    0.01123    0.00000 
C1497   C      C_R      0.68342    0.01513    0.04513    0.00000 
H1498   H      H_       0.71204    0.00740    0.05017    0.00000 
C1499   C      C_R      0.78154    0.16030    0.01470    0.00000 
H1500   H      H_       0.79902    0.16967    0.32593    0.00000 
C1501   C      C_R      0.79606    0.13227    0.04057    0.00000 
H1502   H      H_       0.62382    0.12290    0.03597    0.00000 
C1503   C      C_R      0.60230    0.03970    0.03167    0.00000 
H1504   H      H_       0.77442    0.04900    0.02637    0.00000 
C1505   C      C_R      0.66570    0.04077    0.07123    0.00000 
H1506   H      H_       0.68266    0.05057    0.09420    0.00000 
C1507   C      C_R      0.73290    0.13183    0.07820    0.00000 
H1508   H      H_       0.71586    0.12180    0.10023    0.00000 
C1509   C      C_R      0.71652    0.15990    0.05420    0.00000 
H1510   H      H_       0.68892    0.16917    0.05970    0.00000 
C1511   C      C_R      0.74158    0.17433    0.02153    0.00000 
C1512   C      C_R      0.67560    0.30357    0.31833    0.00000 
C1513   C      C_R      0.72440    0.20460    0.32717    0.00000 
Ni1514  Ni     Ni4+2    0.69896    0.25132    0.61314    0.00000 
O1515   O      O_R      0.64826    0.11654    0.46430    0.00000 
O1516   O      O_R      0.75098    0.04436    0.45673    0.00000 
O1517   O      O_R      0.78738    0.11741    0.49910    0.00000 
O1518   O      O_R      0.61330    0.03993    0.49140    0.00000 
N1519   N      N_R      0.72558    0.28097    0.56540    0.00000 
N1520   N      N_R      0.67222    0.21537    0.57170    0.00000 
C1521   C      C_R      0.71756    0.31977    0.50447    0.00000 
H1522   H      H_       0.70004    0.32873    0.48137    0.00000 
C1523   C      C_R      0.75864    0.33267    0.51123    0.00000 
C1524   C      C_R      0.78342    0.31820    0.54513    0.00000 
H1525   H      H_       0.61204    0.32593    0.55017    0.00000 
C1526   C      C_R      0.68154    0.17303    0.51470    0.00000 
H1527   H      H_       0.69902    0.16367    0.49260    0.00000 
C1528   C      C_R      0.69606    0.20107    0.54057    0.00000 
H1529   H      H_       0.72382    0.21043    0.53597    0.00000 
C1530   C      C_R      0.70230    0.29363    0.53167    0.00000 
H1531   H      H_       0.67442    0.28433    0.52637    0.00000 
C1532   C      C_R      0.76570    0.29257    0.57123    0.00000 
H1533   H      H_       0.78266    0.28277    0.59420    0.00000 
C1534   C      C_R      0.63290    0.20150    0.57820    0.00000 
H1535   H      H_       0.61586    0.21153    0.60023    0.00000 
C1536   C      C_R      0.61652    0.17343    0.55420    0.00000 
H1537   H      H_       0.78892    0.16417    0.55970    0.00000 
C1538   C      C_R      0.64158    0.15900    0.52153    0.00000 
C1539   C      C_R      0.77560    0.02977    0.48500    0.00000 
C1540   C      C_R      0.62440    0.12873    0.49383    0.00000 
Ni1541  Ni     Ni4+2    0.79896    0.08201    0.44648    0.00000 
O1542   O      O_R      0.74826    0.21679    0.63097    0.00000 
O1543   O      O_R      0.65098    0.28897    0.62340    0.00000 
O1544   O      O_R      0.68738    0.21592    0.66577    0.00000 
O1545   O      O_R      0.71330    0.29340    0.65807    0.00000 
N1546   N      N_R      0.62558    0.05237    0.39873    0.00000 
N1547   N      N_R      0.77222    0.11797    0.40503    0.00000 
C1548   C      C_R      0.61756    0.01357    0.33780    0.00000 
H1549   H      H_       0.60004    0.00460    0.64803    0.00000 
C1550   C      C_R      0.65864    0.00067    0.34457    0.00000 
C1551   C      C_R      0.68342    0.01513    0.37847    0.00000 
H1552   H      H_       0.71204    0.00740    0.38350    0.00000 
C1553   C      C_R      0.78154    0.16030    0.34803    0.00000 
H1554   H      H_       0.79902    0.16967    0.65927    0.00000 
C1555   C      C_R      0.79606    0.13227    0.37390    0.00000 
H1556   H      H_       0.62382    0.12290    0.36930    0.00000 
C1557   C      C_R      0.60230    0.03970    0.36500    0.00000 
H1558   H      H_       0.77442    0.04900    0.35970    0.00000 
C1559   C      C_R      0.66570    0.04077    0.40457    0.00000 
H1560   H      H_       0.68266    0.05057    0.42753    0.00000 
C1561   C      C_R      0.73290    0.13183    0.41153    0.00000 
H1562   H      H_       0.71586    0.12180    0.43357    0.00000 
C1563   C      C_R      0.71652    0.15990    0.38753    0.00000 
H1564   H      H_       0.68892    0.16917    0.39303    0.00000 
C1565   C      C_R      0.74158    0.17433    0.35487    0.00000 
C1566   C      C_R      0.67560    0.30357    0.65167    0.00000 
C1567   C      C_R      0.72440    0.20460    0.66050    0.00000 
Ni1568  Ni     Ni4+2    0.69896    0.25132    0.94648    0.00000 
O1569   O      O_R      0.64826    0.11654    0.79763    0.00000 
O1570   O      O_R      0.75098    0.04436    0.79007    0.00000 
O1571   O      O_R      0.78738    0.11741    0.83243    0.00000 
O1572   O      O_R      0.61330    0.03993    0.82473    0.00000 
N1573   N      N_R      0.72558    0.28097    0.89873    0.00000 
N1574   N      N_R      0.67222    0.21537    0.90503    0.00000 
C1575   C      C_R      0.71756    0.31977    0.83780    0.00000 
H1576   H      H_       0.70004    0.32873    0.81470    0.00000 
C1577   C      C_R      0.75864    0.33267    0.84457    0.00000 
C1578   C      C_R      0.78342    0.31820    0.87847    0.00000 
H1579   H      H_       0.61204    0.32593    0.88350    0.00000 
C1580   C      C_R      0.68154    0.17303    0.84803    0.00000 
H1581   H      H_       0.69902    0.16367    0.82593    0.00000 
C1582   C      C_R      0.69606    0.20107    0.87390    0.00000 
H1583   H      H_       0.72382    0.21043    0.86930    0.00000 
C1584   C      C_R      0.70230    0.29363    0.86500    0.00000 
H1585   H      H_       0.67442    0.28433    0.85970    0.00000 
C1586   C      C_R      0.76570    0.29257    0.90457    0.00000 
H1587   H      H_       0.78266    0.28277    0.92753    0.00000 
C1588   C      C_R      0.63290    0.20150    0.91153    0.00000 
H1589   H      H_       0.61586    0.21153    0.93357    0.00000 
C1590   C      C_R      0.61652    0.17343    0.88753    0.00000 
H1591   H      H_       0.78892    0.16417    0.89303    0.00000 
C1592   C      C_R      0.64158    0.15900    0.85487    0.00000 
C1593   C      C_R      0.77560    0.02977    0.81833    0.00000 
C1594   C      C_R      0.62440    0.12873    0.82717    0.00000 
Ni1595  Ni     Ni4+2    0.79896    0.08201    0.77981    0.00000 
O1596   O      O_R      0.74826    0.21679    0.96430    0.00000 
O1597   O      O_R      0.65098    0.28897    0.95673    0.00000 
O1598   O      O_R      0.68738    0.21592    0.99910    0.00000 
O1599   O      O_R      0.71330    0.29340    0.99140    0.00000 
N1600   N      N_R      0.62558    0.05237    0.73207    0.00000 
N1601   N      N_R      0.77222    0.11797    0.73837    0.00000 
C1602   C      C_R      0.61756    0.01357    0.67113    0.00000 
H1603   H      H_       0.60004    0.00460    0.98137    0.00000 
C1604   C      C_R      0.65864    0.00067    0.67790    0.00000 
C1605   C      C_R      0.68342    0.01513    0.71180    0.00000 
H1606   H      H_       0.71204    0.00740    0.71683    0.00000 
C1607   C      C_R      0.78154    0.16030    0.68137    0.00000 
H1608   H      H_       0.79902    0.16967    0.99260    0.00000 
C1609   C      C_R      0.79606    0.13227    0.70723    0.00000 
H1610   H      H_       0.62382    0.12290    0.70263    0.00000 
C1611   C      C_R      0.60230    0.03970    0.69833    0.00000 
H1612   H      H_       0.77442    0.04900    0.69303    0.00000 
C1613   C      C_R      0.66570    0.04077    0.73790    0.00000 
H1614   H      H_       0.68266    0.05057    0.76087    0.00000 
C1615   C      C_R      0.73290    0.13183    0.74487    0.00000 
H1616   H      H_       0.71586    0.12180    0.76690    0.00000 
C1617   C      C_R      0.71652    0.15990    0.72087    0.00000 
H1618   H      H_       0.68892    0.16917    0.72637    0.00000 
C1619   C      C_R      0.74158    0.17433    0.68820    0.00000 
C1620   C      C_R      0.67560    0.30357    0.98500    0.00000 
C1621   C      C_R      0.72440    0.20460    0.99383    0.00000 
Ni1622  Ni     Ni4+2    0.69896    0.58465    0.27981    0.00000 
O1623   O      O_R      0.64826    0.44987    0.13097    0.00000 
O1624   O      O_R      0.75098    0.37769    0.12340    0.00000 
O1625   O      O_R      0.78738    0.45074    0.16577    0.00000 
O1626   O      O_R      0.61330    0.37327    0.15807    0.00000 
N1627   N      N_R      0.72558    0.61430    0.23207    0.00000 
N1628   N      N_R      0.67222    0.54870    0.23837    0.00000 
C1629   C      C_R      0.71756    0.65310    0.17113    0.00000 
H1630   H      H_       0.70004    0.66207    0.14803    0.00000 
C1631   C      C_R      0.75864    0.66600    0.17790    0.00000 
C1632   C      C_R      0.78342    0.65153    0.21180    0.00000 
H1633   H      H_       0.61204    0.65927    0.21683    0.00000 
C1634   C      C_R      0.68154    0.50637    0.18137    0.00000 
H1635   H      H_       0.69902    0.49700    0.15927    0.00000 
C1636   C      C_R      0.69606    0.53440    0.20723    0.00000 
H1637   H      H_       0.72382    0.54377    0.20263    0.00000 
C1638   C      C_R      0.70230    0.62697    0.19833    0.00000 
H1639   H      H_       0.67442    0.61767    0.19303    0.00000 
C1640   C      C_R      0.76570    0.62590    0.23790    0.00000 
H1641   H      H_       0.78266    0.61610    0.26087    0.00000 
C1642   C      C_R      0.63290    0.53483    0.24487    0.00000 
H1643   H      H_       0.61586    0.54487    0.26690    0.00000 
C1644   C      C_R      0.61652    0.50677    0.22087    0.00000 
H1645   H      H_       0.78892    0.49750    0.22637    0.00000 
C1646   C      C_R      0.64158    0.49233    0.18820    0.00000 
C1647   C      C_R      0.77560    0.36310    0.15167    0.00000 
C1648   C      C_R      0.62440    0.46207    0.16050    0.00000 
Ni1649  Ni     Ni4+2    0.79896    0.41535    0.11314    0.00000 
O1650   O      O_R      0.74826    0.55013    0.29763    0.00000 
O1651   O      O_R      0.65098    0.62231    0.29007    0.00000 
O1652   O      O_R      0.68738    0.54926    0.33243    0.00000 
O1653   O      O_R      0.71330    0.62673    0.32473    0.00000 
N1654   N      N_R      0.62558    0.38570    0.06540    0.00000 
N1655   N      N_R      0.77222    0.45130    0.07170    0.00000 
C1656   C      C_R      0.61756    0.34690    0.00447    0.00000 
H1657   H      H_       0.60004    0.33793    0.31470    0.00000 
C1658   C      C_R      0.65864    0.33400    0.01123    0.00000 
C1659   C      C_R      0.68342    0.34847    0.04513    0.00000 
H1660   H      H_       0.71204    0.34073    0.05017    0.00000 
C1661   C      C_R      0.78154    0.49363    0.01470    0.00000 
H1662   H      H_       0.79902    0.50300    0.32593    0.00000 
C1663   C      C_R      0.79606    0.46560    0.04057    0.00000 
H1664   H      H_       0.62382    0.45623    0.03597    0.00000 
C1665   C      C_R      0.60230    0.37303    0.03167    0.00000 
H1666   H      H_       0.77442    0.38233    0.02637    0.00000 
C1667   C      C_R      0.66570    0.37410    0.07123    0.00000 
H1668   H      H_       0.68266    0.38390    0.09420    0.00000 
C1669   C      C_R      0.73290    0.46517    0.07820    0.00000 
H1670   H      H_       0.71586    0.45513    0.10023    0.00000 
C1671   C      C_R      0.71652    0.49323    0.05420    0.00000 
H1672   H      H_       0.68892    0.50250    0.05970    0.00000 
C1673   C      C_R      0.74158    0.50767    0.02153    0.00000 
C1674   C      C_R      0.67560    0.63690    0.31833    0.00000 
C1675   C      C_R      0.72440    0.53793    0.32717    0.00000 
Ni1676  Ni     Ni4+2    0.69896    0.58465    0.61314    0.00000 
O1677   O      O_R      0.64826    0.44987    0.46430    0.00000 
O1678   O      O_R      0.75098    0.37769    0.45673    0.00000 
O1679   O      O_R      0.78738    0.45074    0.49910    0.00000 
O1680   O      O_R      0.61330    0.37327    0.49140    0.00000 
N1681   N      N_R      0.72558    0.61430    0.56540    0.00000 
N1682   N      N_R      0.67222    0.54870    0.57170    0.00000 
C1683   C      C_R      0.71756    0.65310    0.50447    0.00000 
H1684   H      H_       0.70004    0.66207    0.48137    0.00000 
C1685   C      C_R      0.75864    0.66600    0.51123    0.00000 
C1686   C      C_R      0.78342    0.65153    0.54513    0.00000 
H1687   H      H_       0.61204    0.65927    0.55017    0.00000 
C1688   C      C_R      0.68154    0.50637    0.51470    0.00000 
H1689   H      H_       0.69902    0.49700    0.49260    0.00000 
C1690   C      C_R      0.69606    0.53440    0.54057    0.00000 
H1691   H      H_       0.72382    0.54377    0.53597    0.00000 
C1692   C      C_R      0.70230    0.62697    0.53167    0.00000 
H1693   H      H_       0.67442    0.61767    0.52637    0.00000 
C1694   C      C_R      0.76570    0.62590    0.57123    0.00000 
H1695   H      H_       0.78266    0.61610    0.59420    0.00000 
C1696   C      C_R      0.63290    0.53483    0.57820    0.00000 
H1697   H      H_       0.61586    0.54487    0.60023    0.00000 
C1698   C      C_R      0.61652    0.50677    0.55420    0.00000 
H1699   H      H_       0.78892    0.49750    0.55970    0.00000 
C1700   C      C_R      0.64158    0.49233    0.52153    0.00000 
C1701   C      C_R      0.77560    0.36310    0.48500    0.00000 
C1702   C      C_R      0.62440    0.46207    0.49383    0.00000 
Ni1703  Ni     Ni4+2    0.79896    0.41535    0.44648    0.00000 
O1704   O      O_R      0.74826    0.55013    0.63097    0.00000 
O1705   O      O_R      0.65098    0.62231    0.62340    0.00000 
O1706   O      O_R      0.68738    0.54926    0.66577    0.00000 
O1707   O      O_R      0.71330    0.62673    0.65807    0.00000 
N1708   N      N_R      0.62558    0.38570    0.39873    0.00000 
N1709   N      N_R      0.77222    0.45130    0.40503    0.00000 
C1710   C      C_R      0.61756    0.34690    0.33780    0.00000 
H1711   H      H_       0.60004    0.33793    0.64803    0.00000 
C1712   C      C_R      0.65864    0.33400    0.34457    0.00000 
C1713   C      C_R      0.68342    0.34847    0.37847    0.00000 
H1714   H      H_       0.71204    0.34073    0.38350    0.00000 
C1715   C      C_R      0.78154    0.49363    0.34803    0.00000 
H1716   H      H_       0.79902    0.50300    0.65927    0.00000 
C1717   C      C_R      0.79606    0.46560    0.37390    0.00000 
H1718   H      H_       0.62382    0.45623    0.36930    0.00000 
C1719   C      C_R      0.60230    0.37303    0.36500    0.00000 
H1720   H      H_       0.77442    0.38233    0.35970    0.00000 
C1721   C      C_R      0.66570    0.37410    0.40457    0.00000 
H1722   H      H_       0.68266    0.38390    0.42753    0.00000 
C1723   C      C_R      0.73290    0.46517    0.41153    0.00000 
H1724   H      H_       0.71586    0.45513    0.43357    0.00000 
C1725   C      C_R      0.71652    0.49323    0.38753    0.00000 
H1726   H      H_       0.68892    0.50250    0.39303    0.00000 
C1727   C      C_R      0.74158    0.50767    0.35487    0.00000 
C1728   C      C_R      0.67560    0.63690    0.65167    0.00000 
C1729   C      C_R      0.72440    0.53793    0.66050    0.00000 
Ni1730  Ni     Ni4+2    0.69896    0.58465    0.94648    0.00000 
O1731   O      O_R      0.64826    0.44987    0.79763    0.00000 
O1732   O      O_R      0.75098    0.37769    0.79007    0.00000 
O1733   O      O_R      0.78738    0.45074    0.83243    0.00000 
O1734   O      O_R      0.61330    0.37327    0.82473    0.00000 
N1735   N      N_R      0.72558    0.61430    0.89873    0.00000 
N1736   N      N_R      0.67222    0.54870    0.90503    0.00000 
C1737   C      C_R      0.71756    0.65310    0.83780    0.00000 
H1738   H      H_       0.70004    0.66207    0.81470    0.00000 
C1739   C      C_R      0.75864    0.66600    0.84457    0.00000 
C1740   C      C_R      0.78342    0.65153    0.87847    0.00000 
H1741   H      H_       0.61204    0.65927    0.88350    0.00000 
C1742   C      C_R      0.68154    0.50637    0.84803    0.00000 
H1743   H      H_       0.69902    0.49700    0.82593    0.00000 
C1744   C      C_R      0.69606    0.53440    0.87390    0.00000 
H1745   H      H_       0.72382    0.54377    0.86930    0.00000 
C1746   C      C_R      0.70230    0.62697    0.86500    0.00000 
H1747   H      H_       0.67442    0.61767    0.85970    0.00000 
C1748   C      C_R      0.76570    0.62590    0.90457    0.00000 
H1749   H      H_       0.78266    0.61610    0.92753    0.00000 
C1750   C      C_R      0.63290    0.53483    0.91153    0.00000 
H1751   H      H_       0.61586    0.54487    0.93357    0.00000 
C1752   C      C_R      0.61652    0.50677    0.88753    0.00000 
H1753   H      H_       0.78892    0.49750    0.89303    0.00000 
C1754   C      C_R      0.64158    0.49233    0.85487    0.00000 
C1755   C      C_R      0.77560    0.36310    0.81833    0.00000 
C1756   C      C_R      0.62440    0.46207    0.82717    0.00000 
Ni1757  Ni     Ni4+2    0.79896    0.41535    0.77981    0.00000 
O1758   O      O_R      0.74826    0.55013    0.96430    0.00000 
O1759   O      O_R      0.65098    0.62231    0.95673    0.00000 
O1760   O      O_R      0.68738    0.54926    0.99910    0.00000 
O1761   O      O_R      0.71330    0.62673    0.99140    0.00000 
N1762   N      N_R      0.62558    0.38570    0.73207    0.00000 
N1763   N      N_R      0.77222    0.45130    0.73837    0.00000 
C1764   C      C_R      0.61756    0.34690    0.67113    0.00000 
H1765   H      H_       0.60004    0.33793    0.98137    0.00000 
C1766   C      C_R      0.65864    0.33400    0.67790    0.00000 
C1767   C      C_R      0.68342    0.34847    0.71180    0.00000 
H1768   H      H_       0.71204    0.34073    0.71683    0.00000 
C1769   C      C_R      0.78154    0.49363    0.68137    0.00000 
H1770   H      H_       0.79902    0.50300    0.99260    0.00000 
C1771   C      C_R      0.79606    0.46560    0.70723    0.00000 
H1772   H      H_       0.62382    0.45623    0.70263    0.00000 
C1773   C      C_R      0.60230    0.37303    0.69833    0.00000 
H1774   H      H_       0.77442    0.38233    0.69303    0.00000 
C1775   C      C_R      0.66570    0.37410    0.73790    0.00000 
H1776   H      H_       0.68266    0.38390    0.76087    0.00000 
C1777   C      C_R      0.73290    0.46517    0.74487    0.00000 
H1778   H      H_       0.71586    0.45513    0.76690    0.00000 
C1779   C      C_R      0.71652    0.49323    0.72087    0.00000 
H1780   H      H_       0.68892    0.50250    0.72637    0.00000 
C1781   C      C_R      0.74158    0.50767    0.68820    0.00000 
C1782   C      C_R      0.67560    0.63690    0.98500    0.00000 
C1783   C      C_R      0.72440    0.53793    0.99383    0.00000 
Ni1784  Ni     Ni4+2    0.69896    0.91799    0.27981    0.00000 
O1785   O      O_R      0.64826    0.78321    0.13097    0.00000 
O1786   O      O_R      0.75098    0.71103    0.12340    0.00000 
O1787   O      O_R      0.78738    0.78408    0.16577    0.00000 
O1788   O      O_R      0.61330    0.70660    0.15807    0.00000 
N1789   N      N_R      0.72558    0.94763    0.23207    0.00000 
N1790   N      N_R      0.67222    0.88203    0.23837    0.00000 
C1791   C      C_R      0.71756    0.98643    0.17113    0.00000 
H1792   H      H_       0.70004    0.99540    0.14803    0.00000 
C1793   C      C_R      0.75864    0.99933    0.17790    0.00000 
C1794   C      C_R      0.78342    0.98487    0.21180    0.00000 
H1795   H      H_       0.61204    0.99260    0.21683    0.00000 
C1796   C      C_R      0.68154    0.83970    0.18137    0.00000 
H1797   H      H_       0.69902    0.83033    0.15927    0.00000 
C1798   C      C_R      0.69606    0.86773    0.20723    0.00000 
H1799   H      H_       0.72382    0.87710    0.20263    0.00000 
C1800   C      C_R      0.70230    0.96030    0.19833    0.00000 
H1801   H      H_       0.67442    0.95100    0.19303    0.00000 
C1802   C      C_R      0.76570    0.95923    0.23790    0.00000 
H1803   H      H_       0.78266    0.94943    0.26087    0.00000 
C1804   C      C_R      0.63290    0.86817    0.24487    0.00000 
H1805   H      H_       0.61586    0.87820    0.26690    0.00000 
C1806   C      C_R      0.61652    0.84010    0.22087    0.00000 
H1807   H      H_       0.78892    0.83083    0.22637    0.00000 
C1808   C      C_R      0.64158    0.82567    0.18820    0.00000 
C1809   C      C_R      0.77560    0.69643    0.15167    0.00000 
C1810   C      C_R      0.62440    0.79540    0.16050    0.00000 
Ni1811  Ni     Ni4+2    0.79896    0.74868    0.11314    0.00000 
O1812   O      O_R      0.74826    0.88346    0.29763    0.00000 
O1813   O      O_R      0.65098    0.95564    0.29007    0.00000 
O1814   O      O_R      0.68738    0.88259    0.33243    0.00000 
O1815   O      O_R      0.71330    0.96007    0.32473    0.00000 
N1816   N      N_R      0.62558    0.71903    0.06540    0.00000 
N1817   N      N_R      0.77222    0.78463    0.07170    0.00000 
C1818   C      C_R      0.61756    0.68023    0.00447    0.00000 
H1819   H      H_       0.60004    0.67127    0.31470    0.00000 
C1820   C      C_R      0.65864    0.66733    0.01123    0.00000 
C1821   C      C_R      0.68342    0.68180    0.04513    0.00000 
H1822   H      H_       0.71204    0.67407    0.05017    0.00000 
C1823   C      C_R      0.78154    0.82697    0.01470    0.00000 
H1824   H      H_       0.79902    0.83633    0.32593    0.00000 
C1825   C      C_R      0.79606    0.79893    0.04057    0.00000 
H1826   H      H_       0.62382    0.78957    0.03597    0.00000 
C1827   C      C_R      0.60230    0.70637    0.03167    0.00000 
H1828   H      H_       0.77442    0.71567    0.02637    0.00000 
C1829   C      C_R      0.66570    0.70743    0.07123    0.00000 
H1830   H      H_       0.68266    0.71723    0.09420    0.00000 
C1831   C      C_R      0.73290    0.79850    0.07820    0.00000 
H1832   H      H_       0.71586    0.78847    0.10023    0.00000 
C1833   C      C_R      0.71652    0.82657    0.05420    0.00000 
H1834   H      H_       0.68892    0.83583    0.05970    0.00000 
C1835   C      C_R      0.74158    0.84100    0.02153    0.00000 
C1836   C      C_R      0.67560    0.97023    0.31833    0.00000 
C1837   C      C_R      0.72440    0.87127    0.32717    0.00000 
Ni1838  Ni     Ni4+2    0.69896    0.91799    0.61314    0.00000 
O1839   O      O_R      0.64826    0.78321    0.46430    0.00000 
O1840   O      O_R      0.75098    0.71103    0.45673    0.00000 
O1841   O      O_R      0.78738    0.78408    0.49910    0.00000 
O1842   O      O_R      0.61330    0.70660    0.49140    0.00000 
N1843   N      N_R      0.72558    0.94763    0.56540    0.00000 
N1844   N      N_R      0.67222    0.88203    0.57170    0.00000 
C1845   C      C_R      0.71756    0.98643    0.50447    0.00000 
H1846   H      H_       0.70004    0.99540    0.48137    0.00000 
C1847   C      C_R      0.75864    0.99933    0.51123    0.00000 
C1848   C      C_R      0.78342    0.98487    0.54513    0.00000 
H1849   H      H_       0.61204    0.99260    0.55017    0.00000 
C1850   C      C_R      0.68154    0.83970    0.51470    0.00000 
H1851   H      H_       0.69902    0.83033    0.49260    0.00000 
C1852   C      C_R      0.69606    0.86773    0.54057    0.00000 
H1853   H      H_       0.72382    0.87710    0.53597    0.00000 
C1854   C      C_R      0.70230    0.96030    0.53167    0.00000 
H1855   H      H_       0.67442    0.95100    0.52637    0.00000 
C1856   C      C_R      0.76570    0.95923    0.57123    0.00000 
H1857   H      H_       0.78266    0.94943    0.59420    0.00000 
C1858   C      C_R      0.63290    0.86817    0.57820    0.00000 
H1859   H      H_       0.61586    0.87820    0.60023    0.00000 
C1860   C      C_R      0.61652    0.84010    0.55420    0.00000 
H1861   H      H_       0.78892    0.83083    0.55970    0.00000 
C1862   C      C_R      0.64158    0.82567    0.52153    0.00000 
C1863   C      C_R      0.77560    0.69643    0.48500    0.00000 
C1864   C      C_R      0.62440    0.79540    0.49383    0.00000 
Ni1865  Ni     Ni4+2    0.79896    0.74868    0.44648    0.00000 
O1866   O      O_R      0.74826    0.88346    0.63097    0.00000 
O1867   O      O_R      0.65098    0.95564    0.62340    0.00000 
O1868   O      O_R      0.68738    0.88259    0.66577    0.00000 
O1869   O      O_R      0.71330    0.96007    0.65807    0.00000 
N1870   N      N_R      0.62558    0.71903    0.39873    0.00000 
N1871   N      N_R      0.77222    0.78463    0.40503    0.00000 
C1872   C      C_R      0.61756    0.68023    0.33780    0.00000 
H1873   H      H_       0.60004    0.67127    0.64803    0.00000 
C1874   C      C_R      0.65864    0.66733    0.34457    0.00000 
C1875   C      C_R      0.68342    0.68180    0.37847    0.00000 
H1876   H      H_       0.71204    0.67407    0.38350    0.00000 
C1877   C      C_R      0.78154    0.82697    0.34803    0.00000 
H1878   H      H_       0.79902    0.83633    0.65927    0.00000 
C1879   C      C_R      0.79606    0.79893    0.37390    0.00000 
H1880   H      H_       0.62382    0.78957    0.36930    0.00000 
C1881   C      C_R      0.60230    0.70637    0.36500    0.00000 
H1882   H      H_       0.77442    0.71567    0.35970    0.00000 
C1883   C      C_R      0.66570    0.70743    0.40457    0.00000 
H1884   H      H_       0.68266    0.71723    0.42753    0.00000 
C1885   C      C_R      0.73290    0.79850    0.41153    0.00000 
H1886   H      H_       0.71586    0.78847    0.43357    0.00000 
C1887   C      C_R      0.71652    0.82657    0.38753    0.00000 
H1888   H      H_       0.68892    0.83583    0.39303    0.00000 
C1889   C      C_R      0.74158    0.84100    0.35487    0.00000 
C1890   C      C_R      0.67560    0.97023    0.65167    0.00000 
C1891   C      C_R      0.72440    0.87127    0.66050    0.00000 
Ni1892  Ni     Ni4+2    0.69896    0.91799    0.94648    0.00000 
O1893   O      O_R      0.64826    0.78321    0.79763    0.00000 
O1894   O      O_R      0.75098    0.71103    0.79007    0.00000 
O1895   O      O_R      0.78738    0.78408    0.83243    0.00000 
O1896   O      O_R      0.61330    0.70660    0.82473    0.00000 
N1897   N      N_R      0.72558    0.94763    0.89873    0.00000 
N1898   N      N_R      0.67222    0.88203    0.90503    0.00000 
C1899   C      C_R      0.71756    0.98643    0.83780    0.00000 
H1900   H      H_       0.70004    0.99540    0.81470    0.00000 
C1901   C      C_R      0.75864    0.99933    0.84457    0.00000 
C1902   C      C_R      0.78342    0.98487    0.87847    0.00000 
H1903   H      H_       0.61204    0.99260    0.88350    0.00000 
C1904   C      C_R      0.68154    0.83970    0.84803    0.00000 
H1905   H      H_       0.69902    0.83033    0.82593    0.00000 
C1906   C      C_R      0.69606    0.86773    0.87390    0.00000 
H1907   H      H_       0.72382    0.87710    0.86930    0.00000 
C1908   C      C_R      0.70230    0.96030    0.86500    0.00000 
H1909   H      H_       0.67442    0.95100    0.85970    0.00000 
C1910   C      C_R      0.76570    0.95923    0.90457    0.00000 
H1911   H      H_       0.78266    0.94943    0.92753    0.00000 
C1912   C      C_R      0.63290    0.86817    0.91153    0.00000 
H1913   H      H_       0.61586    0.87820    0.93357    0.00000 
C1914   C      C_R      0.61652    0.84010    0.88753    0.00000 
H1915   H      H_       0.78892    0.83083    0.89303    0.00000 
C1916   C      C_R      0.64158    0.82567    0.85487    0.00000 
C1917   C      C_R      0.77560    0.69643    0.81833    0.00000 
C1918   C      C_R      0.62440    0.79540    0.82717    0.00000 
Ni1919  Ni     Ni4+2    0.79896    0.74868    0.77981    0.00000 
O1920   O      O_R      0.74826    0.88346    0.96430    0.00000 
O1921   O      O_R      0.65098    0.95564    0.95673    0.00000 
O1922   O      O_R      0.68738    0.88259    0.99910    0.00000 
O1923   O      O_R      0.71330    0.96007    0.99140    0.00000 
N1924   N      N_R      0.62558    0.71903    0.73207    0.00000 
N1925   N      N_R      0.77222    0.78463    0.73837    0.00000 
C1926   C      C_R      0.61756    0.68023    0.67113    0.00000 
H1927   H      H_       0.60004    0.67127    0.98137    0.00000 
C1928   C      C_R      0.65864    0.66733    0.67790    0.00000 
C1929   C      C_R      0.68342    0.68180    0.71180    0.00000 
H1930   H      H_       0.71204    0.67407    0.71683    0.00000 
C1931   C      C_R      0.78154    0.82697    0.68137    0.00000 
H1932   H      H_       0.79902    0.83633    0.99260    0.00000 
C1933   C      C_R      0.79606    0.79893    0.70723    0.00000 
H1934   H      H_       0.62382    0.78957    0.70263    0.00000 
C1935   C      C_R      0.60230    0.70637    0.69833    0.00000 
H1936   H      H_       0.77442    0.71567    0.69303    0.00000 
C1937   C      C_R      0.66570    0.70743    0.73790    0.00000 
H1938   H      H_       0.68266    0.71723    0.76087    0.00000 
C1939   C      C_R      0.73290    0.79850    0.74487    0.00000 
H1940   H      H_       0.71586    0.78847    0.76690    0.00000 
C1941   C      C_R      0.71652    0.82657    0.72087    0.00000 
H1942   H      H_       0.68892    0.83583    0.72637    0.00000 
C1943   C      C_R      0.74158    0.84100    0.68820    0.00000 
C1944   C      C_R      0.67560    0.97023    0.98500    0.00000 
C1945   C      C_R      0.72440    0.87127    0.99383    0.00000 
Ni1946  Ni     Ni4+2    0.89896    0.25132    0.27981    0.00000 
O1947   O      O_R      0.84826    0.11654    0.13097    0.00000 
O1948   O      O_R      0.95098    0.04436    0.12340    0.00000 
O1949   O      O_R      0.98738    0.11741    0.16577    0.00000 
O1950   O      O_R      0.81330    0.03993    0.15807    0.00000 
N1951   N      N_R      0.92558    0.28097    0.23207    0.00000 
N1952   N      N_R      0.87222    0.21537    0.23837    0.00000 
C1953   C      C_R      0.91756    0.31977    0.17113    0.00000 
H1954   H      H_       0.90004    0.32873    0.14803    0.00000 
C1955   C      C_R      0.95864    0.33267    0.17790    0.00000 
C1956   C      C_R      0.98342    0.31820    0.21180    0.00000 
H1957   H      H_       0.81204    0.32593    0.21683    0.00000 
C1958   C      C_R      0.88154    0.17303    0.18137    0.00000 
H1959   H      H_       0.89902    0.16367    0.15927    0.00000 
C1960   C      C_R      0.89606    0.20107    0.20723    0.00000 
H1961   H      H_       0.92382    0.21043    0.20263    0.00000 
C1962   C      C_R      0.90230    0.29363    0.19833    0.00000 
H1963   H      H_       0.87442    0.28433    0.19303    0.00000 
C1964   C      C_R      0.96570    0.29257    0.23790    0.00000 
H1965   H      H_       0.98266    0.28277    0.26087    0.00000 
C1966   C      C_R      0.83290    0.20150    0.24487    0.00000 
H1967   H      H_       0.81586    0.21153    0.26690    0.00000 
C1968   C      C_R      0.81652    0.17343    0.22087    0.00000 
H1969   H      H_       0.98892    0.16417    0.22637    0.00000 
C1970   C      C_R      0.84158    0.15900    0.18820    0.00000 
C1971   C      C_R      0.97560    0.02977    0.15167    0.00000 
C1972   C      C_R      0.82440    0.12873    0.16050    0.00000 
Ni1973  Ni     Ni4+2    0.99896    0.08201    0.11314    0.00000 
O1974   O      O_R      0.94826    0.21679    0.29763    0.00000 
O1975   O      O_R      0.85098    0.28897    0.29007    0.00000 
O1976   O      O_R      0.88738    0.21592    0.33243    0.00000 
O1977   O      O_R      0.91330    0.29340    0.32473    0.00000 
N1978   N      N_R      0.82558    0.05237    0.06540    0.00000 
N1979   N      N_R      0.97222    0.11797    0.07170    0.00000 
C1980   C      C_R      0.81756    0.01357    0.00447    0.00000 
H1981   H      H_       0.80004    0.00460    0.31470    0.00000 
C1982   C      C_R      0.85864    0.00067    0.01123    0.00000 
C1983   C      C_R      0.88342    0.01513    0.04513    0.00000 
H1984   H      H_       0.91204    0.00740    0.05017    0.00000 
C1985   C      C_R      0.98154    0.16030    0.01470    0.00000 
H1986   H      H_       0.99902    0.16967    0.32593    0.00000 
C1987   C      C_R      0.99606    0.13227    0.04057    0.00000 
H1988   H      H_       0.82382    0.12290    0.03597    0.00000 
C1989   C      C_R      0.80230    0.03970    0.03167    0.00000 
H1990   H      H_       0.97442    0.04900    0.02637    0.00000 
C1991   C      C_R      0.86570    0.04077    0.07123    0.00000 
H1992   H      H_       0.88266    0.05057    0.09420    0.00000 
C1993   C      C_R      0.93290    0.13183    0.07820    0.00000 
H1994   H      H_       0.91586    0.12180    0.10023    0.00000 
C1995   C      C_R      0.91652    0.15990    0.05420    0.00000 
H1996   H      H_       0.88892    0.16917    0.05970    0.00000 
C1997   C      C_R      0.94158    0.17433    0.02153    0.00000 
C1998   C      C_R      0.87560    0.30357    0.31833    0.00000 
C1999   C      C_R      0.92440    0.20460    0.32717    0.00000 
Ni2000  Ni     Ni4+2    0.89896    0.25132    0.61314    0.00000 
O2001   O      O_R      0.84826    0.11654    0.46430    0.00000 
O2002   O      O_R      0.95098    0.04436    0.45673    0.00000 
O2003   O      O_R      0.98738    0.11741    0.49910    0.00000 
O2004   O      O_R      0.81330    0.03993    0.49140    0.00000 
N2005   N      N_R      0.92558    0.28097    0.56540    0.00000 
N2006   N      N_R      0.87222    0.21537    0.57170    0.00000 
C2007   C      C_R      0.91756    0.31977    0.50447    0.00000 
H2008   H      H_       0.90004    0.32873    0.48137    0.00000 
C2009   C      C_R      0.95864    0.33267    0.51123    0.00000 
C2010   C      C_R      0.98342    0.31820    0.54513    0.00000 
H2011   H      H_       0.81204    0.32593    0.55017    0.00000 
C2012   C      C_R      0.88154    0.17303    0.51470    0.00000 
H2013   H      H_       0.89902    0.16367    0.49260    0.00000 
C2014   C      C_R      0.89606    0.20107    0.54057    0.00000 
H2015   H      H_       0.92382    0.21043    0.53597    0.00000 
C2016   C      C_R      0.90230    0.29363    0.53167    0.00000 
H2017   H      H_       0.87442    0.28433    0.52637    0.00000 
C2018   C      C_R      0.96570    0.29257    0.57123    0.00000 
H2019   H      H_       0.98266    0.28277    0.59420    0.00000 
C2020   C      C_R      0.83290    0.20150    0.57820    0.00000 
H2021   H      H_       0.81586    0.21153    0.60023    0.00000 
C2022   C      C_R      0.81652    0.17343    0.55420    0.00000 
H2023   H      H_       0.98892    0.16417    0.55970    0.00000 
C2024   C      C_R      0.84158    0.15900    0.52153    0.00000 
C2025   C      C_R      0.97560    0.02977    0.48500    0.00000 
C2026   C      C_R      0.82440    0.12873    0.49383    0.00000 
Ni2027  Ni     Ni4+2    0.99896    0.08201    0.44648    0.00000 
O2028   O      O_R      0.94826    0.21679    0.63097    0.00000 
O2029   O      O_R      0.85098    0.28897    0.62340    0.00000 
O2030   O      O_R      0.88738    0.21592    0.66577    0.00000 
O2031   O      O_R      0.91330    0.29340    0.65807    0.00000 
N2032   N      N_R      0.82558    0.05237    0.39873    0.00000 
N2033   N      N_R      0.97222    0.11797    0.40503    0.00000 
C2034   C      C_R      0.81756    0.01357    0.33780    0.00000 
H2035   H      H_       0.80004    0.00460    0.64803    0.00000 
C2036   C      C_R      0.85864    0.00067    0.34457    0.00000 
C2037   C      C_R      0.88342    0.01513    0.37847    0.00000 
H2038   H      H_       0.91204    0.00740    0.38350    0.00000 
C2039   C      C_R      0.98154    0.16030    0.34803    0.00000 
H2040   H      H_       0.99902    0.16967    0.65927    0.00000 
C2041   C      C_R      0.99606    0.13227    0.37390    0.00000 
H2042   H      H_       0.82382    0.12290    0.36930    0.00000 
C2043   C      C_R      0.80230    0.03970    0.36500    0.00000 
H2044   H      H_       0.97442    0.04900    0.35970    0.00000 
C2045   C      C_R      0.86570    0.04077    0.40457    0.00000 
H2046   H      H_       0.88266    0.05057    0.42753    0.00000 
C2047   C      C_R      0.93290    0.13183    0.41153    0.00000 
H2048   H      H_       0.91586    0.12180    0.43357    0.00000 
C2049   C      C_R      0.91652    0.15990    0.38753    0.00000 
H2050   H      H_       0.88892    0.16917    0.39303    0.00000 
C2051   C      C_R      0.94158    0.17433    0.35487    0.00000 
C2052   C      C_R      0.87560    0.30357    0.65167    0.00000 
C2053   C      C_R      0.92440    0.20460    0.66050    0.00000 
Ni2054  Ni     Ni4+2    0.89896    0.25132    0.94648    0.00000 
O2055   O      O_R      0.84826    0.11654    0.79763    0.00000 
O2056   O      O_R      0.95098    0.04436    0.79007    0.00000 
O2057   O      O_R      0.98738    0.11741    0.83243    0.00000 
O2058   O      O_R      0.81330    0.03993    0.82473    0.00000 
N2059   N      N_R      0.92558    0.28097    0.89873    0.00000 
N2060   N      N_R      0.87222    0.21537    0.90503    0.00000 
C2061   C      C_R      0.91756    0.31977    0.83780    0.00000 
H2062   H      H_       0.90004    0.32873    0.81470    0.00000 
C2063   C      C_R      0.95864    0.33267    0.84457    0.00000 
C2064   C      C_R      0.98342    0.31820    0.87847    0.00000 
H2065   H      H_       0.81204    0.32593    0.88350    0.00000 
C2066   C      C_R      0.88154    0.17303    0.84803    0.00000 
H2067   H      H_       0.89902    0.16367    0.82593    0.00000 
C2068   C      C_R      0.89606    0.20107    0.87390    0.00000 
H2069   H      H_       0.92382    0.21043    0.86930    0.00000 
C2070   C      C_R      0.90230    0.29363    0.86500    0.00000 
H2071   H      H_       0.87442    0.28433    0.85970    0.00000 
C2072   C      C_R      0.96570    0.29257    0.90457    0.00000 
H2073   H      H_       0.98266    0.28277    0.92753    0.00000 
C2074   C      C_R      0.83290    0.20150    0.91153    0.00000 
H2075   H      H_       0.81586    0.21153    0.93357    0.00000 
C2076   C      C_R      0.81652    0.17343    0.88753    0.00000 
H2077   H      H_       0.98892    0.16417    0.89303    0.00000 
C2078   C      C_R      0.84158    0.15900    0.85487    0.00000 
C2079   C      C_R      0.97560    0.02977    0.81833    0.00000 
C2080   C      C_R      0.82440    0.12873    0.82717    0.00000 
Ni2081  Ni     Ni4+2    0.99896    0.08201    0.77981    0.00000 
O2082   O      O_R      0.94826    0.21679    0.96430    0.00000 
O2083   O      O_R      0.85098    0.28897    0.95673    0.00000 
O2084   O      O_R      0.88738    0.21592    0.99910    0.00000 
O2085   O      O_R      0.91330    0.29340    0.99140    0.00000 
N2086   N      N_R      0.82558    0.05237    0.73207    0.00000 
N2087   N      N_R      0.97222    0.11797    0.73837    0.00000 
C2088   C      C_R      0.81756    0.01357    0.67113    0.00000 
H2089   H      H_       0.80004    0.00460    0.98137    0.00000 
C2090   C      C_R      0.85864    0.00067    0.67790    0.00000 
C2091   C      C_R      0.88342    0.01513    0.71180    0.00000 
H2092   H      H_       0.91204    0.00740    0.71683    0.00000 
C2093   C      C_R      0.98154    0.16030    0.68137    0.00000 
H2094   H      H_       0.99902    0.16967    0.99260    0.00000 
C2095   C      C_R      0.99606    0.13227    0.70723    0.00000 
H2096   H      H_       0.82382    0.12290    0.70263    0.00000 
C2097   C      C_R      0.80230    0.03970    0.69833    0.00000 
H2098   H      H_       0.97442    0.04900    0.69303    0.00000 
C2099   C      C_R      0.86570    0.04077    0.73790    0.00000 
H2100   H      H_       0.88266    0.05057    0.76087    0.00000 
C2101   C      C_R      0.93290    0.13183    0.74487    0.00000 
H2102   H      H_       0.91586    0.12180    0.76690    0.00000 
C2103   C      C_R      0.91652    0.15990    0.72087    0.00000 
H2104   H      H_       0.88892    0.16917    0.72637    0.00000 
C2105   C      C_R      0.94158    0.17433    0.68820    0.00000 
C2106   C      C_R      0.87560    0.30357    0.98500    0.00000 
C2107   C      C_R      0.92440    0.20460    0.99383    0.00000 
Ni2108  Ni     Ni4+2    0.89896    0.58465    0.27981    0.00000 
O2109   O      O_R      0.84826    0.44987    0.13097    0.00000 
O2110   O      O_R      0.95098    0.37769    0.12340    0.00000 
O2111   O      O_R      0.98738    0.45074    0.16577    0.00000 
O2112   O      O_R      0.81330    0.37327    0.15807    0.00000 
N2113   N      N_R      0.92558    0.61430    0.23207    0.00000 
N2114   N      N_R      0.87222    0.54870    0.23837    0.00000 
C2115   C      C_R      0.91756    0.65310    0.17113    0.00000 
H2116   H      H_       0.90004    0.66207    0.14803    0.00000 
C2117   C      C_R      0.95864    0.66600    0.17790    0.00000 
C2118   C      C_R      0.98342    0.65153    0.21180    0.00000 
H2119   H      H_       0.81204    0.65927    0.21683    0.00000 
C2120   C      C_R      0.88154    0.50637    0.18137    0.00000 
H2121   H      H_       0.89902    0.49700    0.15927    0.00000 
C2122   C      C_R      0.89606    0.53440    0.20723    0.00000 
H2123   H      H_       0.92382    0.54377    0.20263    0.00000 
C2124   C      C_R      0.90230    0.62697    0.19833    0.00000 
H2125   H      H_       0.87442    0.61767    0.19303    0.00000 
C2126   C      C_R      0.96570    0.62590    0.23790    0.00000 
H2127   H      H_       0.98266    0.61610    0.26087    0.00000 
C2128   C      C_R      0.83290    0.53483    0.24487    0.00000 
H2129   H      H_       0.81586    0.54487    0.26690    0.00000 
C2130   C      C_R      0.81652    0.50677    0.22087    0.00000 
H2131   H      H_       0.98892    0.49750    0.22637    0.00000 
C2132   C      C_R      0.84158    0.49233    0.18820    0.00000 
C2133   C      C_R      0.97560    0.36310    0.15167    0.00000 
C2134   C      C_R      0.82440    0.46207    0.16050    0.00000 
Ni2135  Ni     Ni4+2    0.99896    0.41535    0.11314    0.00000 
O2136   O      O_R      0.94826    0.55013    0.29763    0.00000 
O2137   O      O_R      0.85098    0.62231    0.29007    0.00000 
O2138   O      O_R      0.88738    0.54926    0.33243    0.00000 
O2139   O      O_R      0.91330    0.62673    0.32473    0.00000 
N2140   N      N_R      0.82558    0.38570    0.06540    0.00000 
N2141   N      N_R      0.97222    0.45130    0.07170    0.00000 
C2142   C      C_R      0.81756    0.34690    0.00447    0.00000 
H2143   H      H_       0.80004    0.33793    0.31470    0.00000 
C2144   C      C_R      0.85864    0.33400    0.01123    0.00000 
C2145   C      C_R      0.88342    0.34847    0.04513    0.00000 
H2146   H      H_       0.91204    0.34073    0.05017    0.00000 
C2147   C      C_R      0.98154    0.49363    0.01470    0.00000 
H2148   H      H_       0.99902    0.50300    0.32593    0.00000 
C2149   C      C_R      0.99606    0.46560    0.04057    0.00000 
H2150   H      H_       0.82382    0.45623    0.03597    0.00000 
C2151   C      C_R      0.80230    0.37303    0.03167    0.00000 
H2152   H      H_       0.97442    0.38233    0.02637    0.00000 
C2153   C      C_R      0.86570    0.37410    0.07123    0.00000 
H2154   H      H_       0.88266    0.38390    0.09420    0.00000 
C2155   C      C_R      0.93290    0.46517    0.07820    0.00000 
H2156   H      H_       0.91586    0.45513    0.10023    0.00000 
C2157   C      C_R      0.91652    0.49323    0.05420    0.00000 
H2158   H      H_       0.88892    0.50250    0.05970    0.00000 
C2159   C      C_R      0.94158    0.50767    0.02153    0.00000 
C2160   C      C_R      0.87560    0.63690    0.31833    0.00000 
C2161   C      C_R      0.92440    0.53793    0.32717    0.00000 
Ni2162  Ni     Ni4+2    0.89896    0.58465    0.61314    0.00000 
O2163   O      O_R      0.84826    0.44987    0.46430    0.00000 
O2164   O      O_R      0.95098    0.37769    0.45673    0.00000 
O2165   O      O_R      0.98738    0.45074    0.49910    0.00000 
O2166   O      O_R      0.81330    0.37327    0.49140    0.00000 
N2167   N      N_R      0.92558    0.61430    0.56540    0.00000 
N2168   N      N_R      0.87222    0.54870    0.57170    0.00000 
C2169   C      C_R      0.91756    0.65310    0.50447    0.00000 
H2170   H      H_       0.90004    0.66207    0.48137    0.00000 
C2171   C      C_R      0.95864    0.66600    0.51123    0.00000 
C2172   C      C_R      0.98342    0.65153    0.54513    0.00000 
H2173   H      H_       0.81204    0.65927    0.55017    0.00000 
C2174   C      C_R      0.88154    0.50637    0.51470    0.00000 
H2175   H      H_       0.89902    0.49700    0.49260    0.00000 
C2176   C      C_R      0.89606    0.53440    0.54057    0.00000 
H2177   H      H_       0.92382    0.54377    0.53597    0.00000 
C2178   C      C_R      0.90230    0.62697    0.53167    0.00000 
H2179   H      H_       0.87442    0.61767    0.52637    0.00000 
C2180   C      C_R      0.96570    0.62590    0.57123    0.00000 
H2181   H      H_       0.98266    0.61610    0.59420    0.00000 
C2182   C      C_R      0.83290    0.53483    0.57820    0.00000 
H2183   H      H_       0.81586    0.54487    0.60023    0.00000 
C2184   C      C_R      0.81652    0.50677    0.55420    0.00000 
H2185   H      H_       0.98892    0.49750    0.55970    0.00000 
C2186   C      C_R      0.84158    0.49233    0.52153    0.00000 
C2187   C      C_R      0.97560    0.36310    0.48500    0.00000 
C2188   C      C_R      0.82440    0.46207    0.49383    0.00000 
Ni2189  Ni     Ni4+2    0.99896    0.41535    0.44648    0.00000 
O2190   O      O_R      0.94826    0.55013    0.63097    0.00000 
O2191   O      O_R      0.85098    0.62231    0.62340    0.00000 
O2192   O      O_R      0.88738    0.54926    0.66577    0.00000 
O2193   O      O_R      0.91330    0.62673    0.65807    0.00000 
N2194   N      N_R      0.82558    0.38570    0.39873    0.00000 
N2195   N      N_R      0.97222    0.45130    0.40503    0.00000 
C2196   C      C_R      0.81756    0.34690    0.33780    0.00000 
H2197   H      H_       0.80004    0.33793    0.64803    0.00000 
C2198   C      C_R      0.85864    0.33400    0.34457    0.00000 
C2199   C      C_R      0.88342    0.34847    0.37847    0.00000 
H2200   H      H_       0.91204    0.34073    0.38350    0.00000 
C2201   C      C_R      0.98154    0.49363    0.34803    0.00000 
H2202   H      H_       0.99902    0.50300    0.65927    0.00000 
C2203   C      C_R      0.99606    0.46560    0.37390    0.00000 
H2204   H      H_       0.82382    0.45623    0.36930    0.00000 
C2205   C      C_R      0.80230    0.37303    0.36500    0.00000 
H2206   H      H_       0.97442    0.38233    0.35970    0.00000 
C2207   C      C_R      0.86570    0.37410    0.40457    0.00000 
H2208   H      H_       0.88266    0.38390    0.42753    0.00000 
C2209   C      C_R      0.93290    0.46517    0.41153    0.00000 
H2210   H      H_       0.91586    0.45513    0.43357    0.00000 
C2211   C      C_R      0.91652    0.49323    0.38753    0.00000 
H2212   H      H_       0.88892    0.50250    0.39303    0.00000 
C2213   C      C_R      0.94158    0.50767    0.35487    0.00000 
C2214   C      C_R      0.87560    0.63690    0.65167    0.00000 
C2215   C      C_R      0.92440    0.53793    0.66050    0.00000 
Ni2216  Ni     Ni4+2    0.89896    0.58465    0.94648    0.00000 
O2217   O      O_R      0.84826    0.44987    0.79763    0.00000 
O2218   O      O_R      0.95098    0.37769    0.79007    0.00000 
O2219   O      O_R      0.98738    0.45074    0.83243    0.00000 
O2220   O      O_R      0.81330    0.37327    0.82473    0.00000 
N2221   N      N_R      0.92558    0.61430    0.89873    0.00000 
N2222   N      N_R      0.87222    0.54870    0.90503    0.00000 
C2223   C      C_R      0.91756    0.65310    0.83780    0.00000 
H2224   H      H_       0.90004    0.66207    0.81470    0.00000 
C2225   C      C_R      0.95864    0.66600    0.84457    0.00000 
C2226   C      C_R      0.98342    0.65153    0.87847    0.00000 
H2227   H      H_       0.81204    0.65927    0.88350    0.00000 
C2228   C      C_R      0.88154    0.50637    0.84803    0.00000 
H2229   H      H_       0.89902    0.49700    0.82593    0.00000 
C2230   C      C_R      0.89606    0.53440    0.87390    0.00000 
H2231   H      H_       0.92382    0.54377    0.86930    0.00000 
C2232   C      C_R      0.90230    0.62697    0.86500    0.00000 
H2233   H      H_       0.87442    0.61767    0.85970    0.00000 
C2234   C      C_R      0.96570    0.62590    0.90457    0.00000 
H2235   H      H_       0.98266    0.61610    0.92753    0.00000 
C2236   C      C_R      0.83290    0.53483    0.91153    0.00000 
H2237   H      H_       0.81586    0.54487    0.93357    0.00000 
C2238   C      C_R      0.81652    0.50677    0.88753    0.00000 
H2239   H      H_       0.98892    0.49750    0.89303    0.00000 
C2240   C      C_R      0.84158    0.49233    0.85487    0.00000 
C2241   C      C_R      0.97560    0.36310    0.81833    0.00000 
C2242   C      C_R      0.82440    0.46207    0.82717    0.00000 
Ni2243  Ni     Ni4+2    0.99896    0.41535    0.77981    0.00000 
O2244   O      O_R      0.94826    0.55013    0.96430    0.00000 
O2245   O      O_R      0.85098    0.62231    0.95673    0.00000 
O2246   O      O_R      0.88738    0.54926    0.99910    0.00000 
O2247   O      O_R      0.91330    0.62673    0.99140    0.00000 
N2248   N      N_R      0.82558    0.38570    0.73207    0.00000 
N2249   N      N_R      0.97222    0.45130    0.73837    0.00000 
C2250   C      C_R      0.81756    0.34690    0.67113    0.00000 
H2251   H      H_       0.80004    0.33793    0.98137    0.00000 
C2252   C      C_R      0.85864    0.33400    0.67790    0.00000 
C2253   C      C_R      0.88342    0.34847    0.71180    0.00000 
H2254   H      H_       0.91204    0.34073    0.71683    0.00000 
C2255   C      C_R      0.98154    0.49363    0.68137    0.00000 
H2256   H      H_       0.99902    0.50300    0.99260    0.00000 
C2257   C      C_R      0.99606    0.46560    0.70723    0.00000 
H2258   H      H_       0.82382    0.45623    0.70263    0.00000 
C2259   C      C_R      0.80230    0.37303    0.69833    0.00000 
H2260   H      H_       0.97442    0.38233    0.69303    0.00000 
C2261   C      C_R      0.86570    0.37410    0.73790    0.00000 
H2262   H      H_       0.88266    0.38390    0.76087    0.00000 
C2263   C      C_R      0.93290    0.46517    0.74487    0.00000 
H2264   H      H_       0.91586    0.45513    0.76690    0.00000 
C2265   C      C_R      0.91652    0.49323    0.72087    0.00000 
H2266   H      H_       0.88892    0.50250    0.72637    0.00000 
C2267   C      C_R      0.94158    0.50767    0.68820    0.00000 
C2268   C      C_R      0.87560    0.63690    0.98500    0.00000 
C2269   C      C_R      0.92440    0.53793    0.99383    0.00000 
Ni2270  Ni     Ni4+2    0.89896    0.91799    0.27981    0.00000 
O2271   O      O_R      0.84826    0.78321    0.13097    0.00000 
O2272   O      O_R      0.95098    0.71103    0.12340    0.00000 
O2273   O      O_R      0.98738    0.78408    0.16577    0.00000 
O2274   O      O_R      0.81330    0.70660    0.15807    0.00000 
N2275   N      N_R      0.92558    0.94763    0.23207    0.00000 
N2276   N      N_R      0.87222    0.88203    0.23837    0.00000 
C2277   C      C_R      0.91756    0.98643    0.17113    0.00000 
H2278   H      H_       0.90004    0.99540    0.14803    0.00000 
C2279   C      C_R      0.95864    0.99933    0.17790    0.00000 
C2280   C      C_R      0.98342    0.98487    0.21180    0.00000 
H2281   H      H_       0.81204    0.99260    0.21683    0.00000 
C2282   C      C_R      0.88154    0.83970    0.18137    0.00000 
H2283   H      H_       0.89902    0.83033    0.15927    0.00000 
C2284   C      C_R      0.89606    0.86773    0.20723    0.00000 
H2285   H      H_       0.92382    0.87710    0.20263    0.00000 
C2286   C      C_R      0.90230    0.96030    0.19833    0.00000 
H2287   H      H_       0.87442    0.95100    0.19303    0.00000 
C2288   C      C_R      0.96570    0.95923    0.23790    0.00000 
H2289   H      H_       0.98266    0.94943    0.26087    0.00000 
C2290   C      C_R      0.83290    0.86817    0.24487    0.00000 
H2291   H      H_       0.81586    0.87820    0.26690    0.00000 
C2292   C      C_R      0.81652    0.84010    0.22087    0.00000 
H2293   H      H_       0.98892    0.83083    0.22637    0.00000 
C2294   C      C_R      0.84158    0.82567    0.18820    0.00000 
C2295   C      C_R      0.97560    0.69643    0.15167    0.00000 
C2296   C      C_R      0.82440    0.79540    0.16050    0.00000 
Ni2297  Ni     Ni4+2    0.99896    0.74868    0.11314    0.00000 
O2298   O      O_R      0.94826    0.88346    0.29763    0.00000 
O2299   O      O_R      0.85098    0.95564    0.29007    0.00000 
O2300   O      O_R      0.88738    0.88259    0.33243    0.00000 
O2301   O      O_R      0.91330    0.96007    0.32473    0.00000 
N2302   N      N_R      0.82558    0.71903    0.06540    0.00000 
N2303   N      N_R      0.97222    0.78463    0.07170    0.00000 
C2304   C      C_R      0.81756    0.68023    0.00447    0.00000 
H2305   H      H_       0.80004    0.67127    0.31470    0.00000 
C2306   C      C_R      0.85864    0.66733    0.01123    0.00000 
C2307   C      C_R      0.88342    0.68180    0.04513    0.00000 
H2308   H      H_       0.91204    0.67407    0.05017    0.00000 
C2309   C      C_R      0.98154    0.82697    0.01470    0.00000 
H2310   H      H_       0.99902    0.83633    0.32593    0.00000 
C2311   C      C_R      0.99606    0.79893    0.04057    0.00000 
H2312   H      H_       0.82382    0.78957    0.03597    0.00000 
C2313   C      C_R      0.80230    0.70637    0.03167    0.00000 
H2314   H      H_       0.97442    0.71567    0.02637    0.00000 
C2315   C      C_R      0.86570    0.70743    0.07123    0.00000 
H2316   H      H_       0.88266    0.71723    0.09420    0.00000 
C2317   C      C_R      0.93290    0.79850    0.07820    0.00000 
H2318   H      H_       0.91586    0.78847    0.10023    0.00000 
C2319   C      C_R      0.91652    0.82657    0.05420    0.00000 
H2320   H      H_       0.88892    0.83583    0.05970    0.00000 
C2321   C      C_R      0.94158    0.84100    0.02153    0.00000 
C2322   C      C_R      0.87560    0.97023    0.31833    0.00000 
C2323   C      C_R      0.92440    0.87127    0.32717    0.00000 
Ni2324  Ni     Ni4+2    0.89896    0.91799    0.61314    0.00000 
O2325   O      O_R      0.84826    0.78321    0.46430    0.00000 
O2326   O      O_R      0.95098    0.71103    0.45673    0.00000 
O2327   O      O_R      0.98738    0.78408    0.49910    0.00000 
O2328   O      O_R      0.81330    0.70660    0.49140    0.00000 
N2329   N      N_R      0.92558    0.94763    0.56540    0.00000 
N2330   N      N_R      0.87222    0.88203    0.57170    0.00000 
C2331   C      C_R      0.91756    0.98643    0.50447    0.00000 
H2332   H      H_       0.90004    0.99540    0.48137    0.00000 
C2333   C      C_R      0.95864    0.99933    0.51123    0.00000 
C2334   C      C_R      0.98342    0.98487    0.54513    0.00000 
H2335   H      H_       0.81204    0.99260    0.55017    0.00000 
C2336   C      C_R      0.88154    0.83970    0.51470    0.00000 
H2337   H      H_       0.89902    0.83033    0.49260    0.00000 
C2338   C      C_R      0.89606    0.86773    0.54057    0.00000 
H2339   H      H_       0.92382    0.87710    0.53597    0.00000 
C2340   C      C_R      0.90230    0.96030    0.53167    0.00000 
H2341   H      H_       0.87442    0.95100    0.52637    0.00000 
C2342   C      C_R      0.96570    0.95923    0.57123    0.00000 
H2343   H      H_       0.98266    0.94943    0.59420    0.00000 
C2344   C      C_R      0.83290    0.86817    0.57820    0.00000 
H2345   H      H_       0.81586    0.87820    0.60023    0.00000 
C2346   C      C_R      0.81652    0.84010    0.55420    0.00000 
H2347   H      H_       0.98892    0.83083    0.55970    0.00000 
C2348   C      C_R      0.84158    0.82567    0.52153    0.00000 
C2349   C      C_R      0.97560    0.69643    0.48500    0.00000 
C2350   C      C_R      0.82440    0.79540    0.49383    0.00000 
Ni2351  Ni     Ni4+2    0.99896    0.74868    0.44648    0.00000 
O2352   O      O_R      0.94826    0.88346    0.63097    0.00000 
O2353   O      O_R      0.85098    0.95564    0.62340    0.00000 
O2354   O      O_R      0.88738    0.88259    0.66577    0.00000 
O2355   O      O_R      0.91330    0.96007    0.65807    0.00000 
N2356   N      N_R      0.82558    0.71903    0.39873    0.00000 
N2357   N      N_R      0.97222    0.78463    0.40503    0.00000 
C2358   C      C_R      0.81756    0.68023    0.33780    0.00000 
H2359   H      H_       0.80004    0.67127    0.64803    0.00000 
C2360   C      C_R      0.85864    0.66733    0.34457    0.00000 
C2361   C      C_R      0.88342    0.68180    0.37847    0.00000 
H2362   H      H_       0.91204    0.67407    0.38350    0.00000 
C2363   C      C_R      0.98154    0.82697    0.34803    0.00000 
H2364   H      H_       0.99902    0.83633    0.65927    0.00000 
C2365   C      C_R      0.99606    0.79893    0.37390    0.00000 
H2366   H      H_       0.82382    0.78957    0.36930    0.00000 
C2367   C      C_R      0.80230    0.70637    0.36500    0.00000 
H2368   H      H_       0.97442    0.71567    0.35970    0.00000 
C2369   C      C_R      0.86570    0.70743    0.40457    0.00000 
H2370   H      H_       0.88266    0.71723    0.42753    0.00000 
C2371   C      C_R      0.93290    0.79850    0.41153    0.00000 
H2372   H      H_       0.91586    0.78847    0.43357    0.00000 
C2373   C      C_R      0.91652    0.82657    0.38753    0.00000 
H2374   H      H_       0.88892    0.83583    0.39303    0.00000 
C2375   C      C_R      0.94158    0.84100    0.35487    0.00000 
C2376   C      C_R      0.87560    0.97023    0.65167    0.00000 
C2377   C      C_R      0.92440    0.87127    0.66050    0.00000 
Ni2378  Ni     Ni4+2    0.89896    0.91799    0.94648    0.00000 
O2379   O      O_R      0.84826    0.78321    0.79763    0.00000 
O2380   O      O_R      0.95098    0.71103    0.79007    0.00000 
O2381   O      O_R      0.98738    0.78408    0.83243    0.00000 
O2382   O      O_R      0.81330    0.70660    0.82473    0.00000 
N2383   N      N_R      0.92558    0.94763    0.89873    0.00000 
N2384   N      N_R      0.87222    0.88203    0.90503    0.00000 
C2385   C      C_R      0.91756    0.98643    0.83780    0.00000 
H2386   H      H_       0.90004    0.99540    0.81470    0.00000 
C2387   C      C_R      0.95864    0.99933    0.84457    0.00000 
C2388   C      C_R      0.98342    0.98487    0.87847    0.00000 
H2389   H      H_       0.81204    0.99260    0.88350    0.00000 
C2390   C      C_R      0.88154    0.83970    0.84803    0.00000 
H2391   H      H_       0.89902    0.83033    0.82593    0.00000 
C2392   C      C_R      0.89606    0.86773    0.87390    0.00000 
H2393   H      H_       0.92382    0.87710    0.86930    0.00000 
C2394   C      C_R      0.90230    0.96030    0.86500    0.00000 
H2395   H      H_       0.87442    0.95100    0.85970    0.00000 
C2396   C      C_R      0.96570    0.95923    0.90457    0.00000 
H2397   H      H_       0.98266    0.94943    0.92753    0.00000 
C2398   C      C_R      0.83290    0.86817    0.91153    0.00000 
H2399   H      H_       0.81586    0.87820    0.93357    0.00000 
C2400   C      C_R      0.81652    0.84010    0.88753    0.00000 
H2401   H      H_       0.98892    0.83083    0.89303    0.00000 
C2402   C      C_R      0.84158    0.82567    0.85487    0.00000 
C2403   C      C_R      0.97560    0.69643    0.81833    0.00000 
C2404   C      C_R      0.82440    0.79540    0.82717    0.00000 
Ni2405  Ni     Ni4+2    0.99896    0.74868    0.77981    0.00000 
O2406   O      O_R      0.94826    0.88346    0.96430    0.00000 
O2407   O      O_R      0.85098    0.95564    0.95673    0.00000 
O2408   O      O_R      0.88738    0.88259    0.99910    0.00000 
O2409   O      O_R      0.91330    0.96007    0.99140    0.00000 
N2410   N      N_R      0.82558    0.71903    0.73207    0.00000 
N2411   N      N_R      0.97222    0.78463    0.73837    0.00000 
C2412   C      C_R      0.81756    0.68023    0.67113    0.00000 
H2413   H      H_       0.80004    0.67127    0.98137    0.00000 
C2414   C      C_R      0.85864    0.66733    0.67790    0.00000 
C2415   C      C_R      0.88342    0.68180    0.71180    0.00000 
H2416   H      H_       0.91204    0.67407    0.71683    0.00000 
C2417   C      C_R      0.98154    0.82697    0.68137    0.00000 
H2418   H      H_       0.99902    0.83633    0.99260    0.00000 
C2419   C      C_R      0.99606    0.79893    0.70723    0.00000 
H2420   H      H_       0.82382    0.78957    0.70263    0.00000 
C2421   C      C_R      0.80230    0.70637    0.69833    0.00000 
H2422   H      H_       0.97442    0.71567    0.69303    0.00000 
C2423   C      C_R      0.86570    0.70743    0.73790    0.00000 
H2424   H      H_       0.88266    0.71723    0.76087    0.00000 
C2425   C      C_R      0.93290    0.79850    0.74487    0.00000 
H2426   H      H_       0.91586    0.78847    0.76690    0.00000 
C2427   C      C_R      0.91652    0.82657    0.72087    0.00000 
H2428   H      H_       0.88892    0.83583    0.72637    0.00000 
C2429   C      C_R      0.94158    0.84100    0.68820    0.00000 
C2430   C      C_R      0.87560    0.97023    0.98500    0.00000 
C2431   C      C_R      0.92440    0.87127    0.99383    0.00000 
loop_
_geom_bond_atom_site_label_1      
_geom_bond_atom_site_label_2      
_geom_bond_distance               
_geom_bond_site_symmetry_2        
_ccdc_geom_bond_type              
Ni1     N6        2.038 .         S 
Ni1     N7        2.027 .         S 
Ni1     O29       2.079 .         S 
Ni1     O30       2.091 .         S 
Ni1     O31       2.135 .         S 
Ni1     O32       2.143 .         S 
O2      Ni1973    2.079 1_455     S 
O3      Ni28      2.091 .         S 
O4      Ni28      2.135 .         S 
O5      Ni1973    2.143 1_455     S 
C8      H9        0.950 .         S 
C10     C189      1.504 .         S 
C11     H499      0.950 .         S 
C1956   H12       0.950 1_655     S 
C13     H14       0.950 .         S 
C15     H16       0.950 .         S 
C17     H18       0.950 .         S 
C19     H20       0.949 .         S 
C21     H22       0.950 .         S 
C23     H1969     0.949 1_455     S 
C510    H24       0.949 .         S 
C25     C27       1.513 .         S 
C335    C26       1.504 1_565     S 
Ni28    N34       2.027 .         S 
Ni28    N520      2.038 .         S 
O489    Ni28      2.079 .         S 
O492    Ni28      2.143 .         S 
Ni1973  N33       2.038 1_655     S 
C35     H145      0.950 1_554     S 
C90     H36       0.950 .         S 
C37     C486      1.504 1_544     S 
C38     H39       0.950 .         S 
C40     H150      0.950 1_554     S 
C95     H41       0.950 .         S 
C42     H530      0.950 .         S 
C1987   H43       0.950 1_655     S 
C44     H1990     0.950 1_455     S 
C531    H45       0.950 .         S 
C46     H47       0.949 .         S 
C48     H49       0.950 .         S 
C50     H51       0.949 .         S 
C52     C163      1.513 1_554     S 
C254    C53       1.504 .         S 
C107    C54       1.513 .         S 
Ni56    N61       2.038 .         S 
Ni56    N62       2.027 .         S 
Ni56    O84       2.079 .         S 
Ni56    O85       2.091 .         S 
Ni56    O86       2.135 .         S 
Ni56    O87       2.143 .         S 
O57     Ni2027    2.079 1_455     S 
O58     Ni83      2.091 .         S 
O59     Ni83      2.135 .         S 
O60     Ni2027    2.143 1_455     S 
C63     H64       0.950 .         S 
C65     C243      1.504 .         S 
C66     H553      0.950 .         S 
C2010   H67       0.950 1_655     S 
C68     H69       0.950 .         S 
C70     H71       0.950 .         S 
C72     H73       0.950 .         S 
C74     H75       0.949 .         S 
C76     H77       0.950 .         S 
C78     H2023     0.949 1_455     S 
C564    H79       0.949 .         S 
C80     C82       1.513 .         S 
C389    C81       1.504 1_565     S 
Ni83    N89       2.027 .         S 
Ni83    N574      2.038 .         S 
O543    Ni83      2.079 .         S 
O546    Ni83      2.143 .         S 
Ni2027  N88       2.038 1_655     S 
C144    H91       0.950 .         S 
C92     C378      1.504 1_545     S 
C93     H94       0.950 .         S 
C149    H96       0.950 .         S 
C97     H584      0.950 .         S 
C2041   H98       0.950 1_655     S 
C99     H2044     0.950 1_455     S 
C585    H100      0.950 .         S 
C101    H102      0.949 .         S 
C103    H104      0.950 .         S 
C105    H106      0.949 .         S 
C308    C108      1.504 .         S 
C161    C109      1.513 .         S 
Ni110   N115      2.038 .         S 
Ni110   N116      2.027 .         S 
Ni110   O138      2.079 .         S 
Ni110   O139      2.091 .         S 
Ni110   O140      2.135 .         S 
Ni110   O141      2.143 .         S 
O111    Ni2081    2.079 1_455     S 
O112    Ni137     2.091 .         S 
O113    Ni137     2.135 .         S 
O114    Ni2081    2.143 1_455     S 
C117    H118      0.950 .         S 
C119    C297      1.504 .         S 
C120    H607      0.950 .         S 
C2064   H121      0.950 1_655     S 
C122    H123      0.950 .         S 
C124    H125      0.950 .         S 
C126    H127      0.950 .         S 
C128    H129      0.949 .         S 
C130    H131      0.950 .         S 
C132    H2077     0.949 1_455     S 
C618    H133      0.949 .         S 
C134    C136      1.513 .         S 
C443    C135      1.504 1_565     S 
Ni137   N143      2.027 .         S 
Ni137   N628      2.038 .         S 
O597    Ni137     2.079 .         S 
O600    Ni137     2.143 .         S 
Ni2081  N142      2.038 1_655     S 
C146    C432      1.504 1_545     S 
C147    H148      0.950 .         S 
C151    H638      0.950 .         S 
C2095   H152      0.950 1_655     S 
C153    H2098     0.950 1_455     S 
C639    H154      0.950 .         S 
C155    H156      0.949 .         S 
C157    H158      0.950 .         S 
C159    H160      0.949 .         S 
C200    C162      1.504 1_554     S 
Ni164   N169      2.038 .         S 
Ni164   N170      2.027 .         S 
Ni164   O192      2.079 .         S 
Ni164   O193      2.091 .         S 
Ni164   O194      2.135 .         S 
Ni164   O195      2.143 .         S 
O165    Ni2135    2.079 1_455     S 
O166    Ni191     2.091 .         S 
O167    Ni191     2.135 .         S 
O168    Ni2135    2.143 1_455     S 
C171    H172      0.950 .         S 
C173    C351      1.504 .         S 
C174    H661      0.950 .         S 
C2118   H175      0.950 1_655     S 
C176    H177      0.950 .         S 
C178    H179      0.950 .         S 
C180    H181      0.950 .         S 
C182    H183      0.949 .         S 
C184    H185      0.950 .         S 
C186    H2131     0.949 1_455     S 
C672    H187      0.949 .         S 
C188    C190      1.513 .         S 
Ni191   N197      2.027 .         S 
Ni191   N682      2.038 .         S 
O651    Ni191     2.079 .         S 
O654    Ni191     2.143 .         S 
Ni2135  N196      2.038 1_655     S 
C198    H307      0.950 1_554     S 
C252    H199      0.950 .         S 
C201    H202      0.950 .         S 
C203    H312      0.950 1_554     S 
C257    H204      0.950 .         S 
C205    H692      0.950 .         S 
C2149   H206      0.950 1_655     S 
C207    H2152     0.950 1_455     S 
C693    H208      0.950 .         S 
C209    H210      0.949 .         S 
C211    H212      0.950 .         S 
C213    H214      0.949 .         S 
C215    C325      1.513 1_554     S 
C416    C216      1.504 .         S 
C269    C217      1.513 .         S 
Ni218   N223      2.038 .         S 
Ni218   N224      2.027 .         S 
Ni218   O246      2.079 .         S 
Ni218   O247      2.091 .         S 
Ni218   O248      2.135 .         S 
Ni218   O249      2.143 .         S 
O219    Ni2189    2.079 1_455     S 
O220    Ni245     2.091 .         S 
O221    Ni245     2.135 .         S 
O222    Ni2189    2.143 1_455     S 
C225    H226      0.950 .         S 
C227    C405      1.504 .         S 
C228    H715      0.950 .         S 
C2172   H229      0.950 1_655     S 
C230    H231      0.950 .         S 
C232    H233      0.950 .         S 
C234    H235      0.950 .         S 
C236    H237      0.949 .         S 
C238    H239      0.950 .         S 
C240    H2185     0.949 1_455     S 
C726    H241      0.949 .         S 
C242    C244      1.513 .         S 
Ni245   N251      2.027 .         S 
Ni245   N736      2.038 .         S 
O705    Ni245     2.079 .         S 
O708    Ni245     2.143 .         S 
Ni2189  N250      2.038 1_655     S 
C306    H253      0.950 .         S 
C255    H256      0.950 .         S 
C311    H258      0.950 .         S 
C259    H746      0.950 .         S 
C2203   H260      0.950 1_655     S 
C261    H2206     0.950 1_455     S 
C747    H262      0.950 .         S 
C263    H264      0.949 .         S 
C265    H266      0.950 .         S 
C267    H268      0.949 .         S 
C470    C270      1.504 .         S 
C323    C271      1.513 .         S 
Ni272   N277      2.038 .         S 
Ni272   N278      2.027 .         S 
Ni272   O300      2.079 .         S 
Ni272   O301      2.091 .         S 
Ni272   O302      2.135 .         S 
Ni272   O303      2.143 .         S 
O273    Ni2243    2.079 1_455     S 
O274    Ni299     2.091 .         S 
O275    Ni299     2.135 .         S 
O276    Ni2243    2.143 1_455     S 
C279    H280      0.950 .         S 
C281    C459      1.504 .         S 
C282    H769      0.950 .         S 
C2226   H283      0.950 1_655     S 
C284    H285      0.950 .         S 
C286    H287      0.950 .         S 
C288    H289      0.950 .         S 
C290    H291      0.949 .         S 
C292    H293      0.950 .         S 
C294    H2239     0.949 1_455     S 
C780    H295      0.949 .         S 
C296    C298      1.513 .         S 
Ni299   N305      2.027 .         S 
Ni299   N790      2.038 .         S 
O759    Ni299     2.079 .         S 
O762    Ni299     2.143 .         S 
Ni2243  N304      2.038 1_655     S 
C309    H310      0.950 .         S 
C313    H800      0.950 .         S 
C2257   H314      0.950 1_655     S 
C315    H2260     0.950 1_455     S 
C801    H316      0.950 .         S 
C317    H318      0.949 .         S 
C319    H320      0.950 .         S 
C321    H322      0.949 .         S 
C362    C324      1.504 1_554     S 
Ni326   N331      2.038 .         S 
Ni326   N332      2.027 .         S 
Ni326   O354      2.079 .         S 
Ni326   O355      2.091 .         S 
Ni326   O356      2.135 .         S 
Ni326   O357      2.143 .         S 
O327    Ni2297    2.079 1_455     S 
O328    Ni353     2.091 .         S 
O329    Ni353     2.135 .         S 
O330    Ni2297    2.143 1_455     S 
C333    H334      0.950 .         S 
C336    H823      0.950 .         S 
C2280   H337      0.950 1_655     S 
C338    H339      0.950 .         S 
C340    H341      0.950 .         S 
C342    H343      0.950 .         S 
C344    H345      0.949 .         S 
C346    H347      0.950 .         S 
C348    H2293     0.949 1_455     S 
C834    H349      0.949 .         S 
C350    C352      1.513 .         S 
Ni353   N359      2.027 .         S 
Ni353   N844      2.038 .         S 
O813    Ni353     2.079 .         S 
O816    Ni353     2.143 .         S 
Ni2297  N358      2.038 1_655     S 
C360    H469      0.950 1_554     S 
C414    H361      0.950 .         S 
C363    H364      0.950 .         S 
C365    H474      0.950 1_554     S 
C419    H366      0.950 .         S 
C367    H854      0.950 .         S 
C2311   H368      0.950 1_655     S 
C369    H2314     0.950 1_455     S 
C855    H370      0.950 .         S 
C371    H372      0.949 .         S 
C373    H374      0.950 .         S 
C375    H376      0.949 .         S 
C377    C487      1.513 1_554     S 
C431    C379      1.513 .         S 
Ni380   N385      2.038 .         S 
Ni380   N386      2.027 .         S 
Ni380   O408      2.079 .         S 
Ni380   O409      2.091 .         S 
Ni380   O410      2.135 .         S 
Ni380   O411      2.143 .         S 
O381    Ni2351    2.079 1_455     S 
O382    Ni407     2.091 .         S 
O383    Ni407     2.135 .         S 
O384    Ni2351    2.143 1_455     S 
C387    H388      0.950 .         S 
C390    H877      0.950 .         S 
C2334   H391      0.950 1_655     S 
C392    H393      0.950 .         S 
C394    H395      0.950 .         S 
C396    H397      0.950 .         S 
C398    H399      0.949 .         S 
C400    H401      0.950 .         S 
C402    H2347     0.949 1_455     S 
C888    H403      0.949 .         S 
C404    C406      1.513 .         S 
Ni407   N413      2.027 .         S 
Ni407   N898      2.038 .         S 
O867    Ni407     2.079 .         S 
O870    Ni407     2.143 .         S 
Ni2351  N412      2.038 1_655     S 
C468    H415      0.950 .         S 
C417    H418      0.950 .         S 
C473    H420      0.950 .         S 
C421    H908      0.950 .         S 
C2365   H422      0.950 1_655     S 
C423    H2368     0.950 1_455     S 
C909    H424      0.950 .         S 
C425    H426      0.949 .         S 
C427    H428      0.950 .         S 
C429    H430      0.949 .         S 
C485    C433      1.513 .         S 
Ni434   N439      2.038 .         S 
Ni434   N440      2.027 .         S 
Ni434   O462      2.079 .         S 
Ni434   O463      2.091 .         S 
Ni434   O464      2.135 .         S 
Ni434   O465      2.143 .         S 
O435    Ni2405    2.079 1_455     S 
O436    Ni461     2.091 .         S 
O437    Ni461     2.135 .         S 
O438    Ni2405    2.143 1_455     S 
C441    H442      0.950 .         S 
C444    H931      0.950 .         S 
C2388   H445      0.950 1_655     S 
C446    H447      0.950 .         S 
C448    H449      0.950 .         S 
C450    H451      0.950 .         S 
C452    H453      0.949 .         S 
C454    H455      0.950 .         S 
C456    H2401     0.949 1_455     S 
C942    H457      0.949 .         S 
C458    C460      1.513 .         S 
Ni461   N467      2.027 .         S 
Ni461   N952      2.038 .         S 
O921    Ni461     2.079 .         S 
O924    Ni461     2.143 .         S 
Ni2405  N466      2.038 1_655     S 
C471    H472      0.950 .         S 
C475    H962      0.950 .         S 
C2419   H476      0.950 1_655     S 
C477    H2422     0.950 1_455     S 
C963    H478      0.950 .         S 
C479    H480      0.949 .         S 
C481    H482      0.950 .         S 
C483    H484      0.949 .         S 
Ni488   N493      2.038 .         S 
Ni488   N494      2.027 .         S 
Ni488   O516      2.079 .         S 
Ni488   O517      2.091 .         S 
Ni488   O518      2.135 .         S 
Ni488   O519      2.143 .         S 
O490    Ni515     2.091 .         S 
O491    Ni515     2.135 .         S 
C495    H496      0.950 .         S 
C497    C675      1.504 .         S 
C498    H985      0.950 .         S 
C500    H501      0.950 .         S 
C502    H503      0.950 .         S 
C504    H505      0.950 .         S 
C506    H507      0.949 .         S 
C508    H509      0.950 .         S 
C996    H511      0.949 .         S 
C512    C514      1.513 .         S 
C821    C513      1.504 1_565     S 
Ni515   N521      2.027 .         S 
Ni515   N1006     2.038 .         S 
O975    Ni515     2.079 .         S 
O978    Ni515     2.143 .         S 
C522    H631      0.950 1_554     S 
C576    H523      0.950 .         S 
C524    C972      1.504 1_544     S 
C525    H526      0.950 .         S 
C527    H636      0.950 1_554     S 
C581    H528      0.950 .         S 
C529    H1016     0.950 .         S 
C1017   H532      0.950 .         S 
C533    H534      0.949 .         S 
C535    H536      0.950 .         S 
C537    H538      0.949 .         S 
C539    C649      1.513 1_554     S 
C740    C540      1.504 .         S 
C593    C541      1.513 .         S 
Ni542   N547      2.038 .         S 
Ni542   N548      2.027 .         S 
Ni542   O570      2.079 .         S 
Ni542   O571      2.091 .         S 
Ni542   O572      2.135 .         S 
Ni542   O573      2.143 .         S 
O544    Ni569     2.091 .         S 
O545    Ni569     2.135 .         S 
C549    H550      0.950 .         S 
C551    C729      1.504 .         S 
C552    H1039     0.950 .         S 
C554    H555      0.950 .         S 
C556    H557      0.950 .         S 
C558    H559      0.950 .         S 
C560    H561      0.949 .         S 
C562    H563      0.950 .         S 
C1050   H565      0.949 .         S 
C566    C568      1.513 .         S 
C875    C567      1.504 1_565     S 
Ni569   N575      2.027 .         S 
Ni569   N1060     2.038 .         S 
O1029   Ni569     2.079 .         S 
O1032   Ni569     2.143 .         S 
C630    H577      0.950 .         S 
C578    C864      1.504 1_545     S 
C579    H580      0.950 .         S 
C635    H582      0.950 .         S 
C583    H1070     0.950 .         S 
C1071   H586      0.950 .         S 
C587    H588      0.949 .         S 
C589    H590      0.950 .         S 
C591    H592      0.949 .         S 
C794    C594      1.504 .         S 
C647    C595      1.513 .         S 
Ni596   N601      2.038 .         S 
Ni596   N602      2.027 .         S 
Ni596   O624      2.079 .         S 
Ni596   O625      2.091 .         S 
Ni596   O626      2.135 .         S 
Ni596   O627      2.143 .         S 
O598    Ni623     2.091 .         S 
O599    Ni623     2.135 .         S 
C603    H604      0.950 .         S 
C605    C783      1.504 .         S 
C606    H1093     0.950 .         S 
C608    H609      0.950 .         S 
C610    H611      0.950 .         S 
C612    H613      0.950 .         S 
C614    H615      0.949 .         S 
C616    H617      0.950 .         S 
C1104   H619      0.949 .         S 
C620    C622      1.513 .         S 
C929    C621      1.504 1_565     S 
Ni623   N629      2.027 .         S 
Ni623   N1114     2.038 .         S 
O1083   Ni623     2.079 .         S 
O1086   Ni623     2.143 .         S 
C632    C918      1.504 1_545     S 
C633    H634      0.950 .         S 
C637    H1124     0.950 .         S 
C1125   H640      0.950 .         S 
C641    H642      0.949 .         S 
C643    H644      0.950 .         S 
C645    H646      0.949 .         S 
C686    C648      1.504 1_554     S 
Ni650   N655      2.038 .         S 
Ni650   N656      2.027 .         S 
Ni650   O678      2.079 .         S 
Ni650   O679      2.091 .         S 
Ni650   O680      2.135 .         S 
Ni650   O681      2.143 .         S 
O652    Ni677     2.091 .         S 
O653    Ni677     2.135 .         S 
C657    H658      0.950 .         S 
C659    C837      1.504 .         S 
C660    H1147     0.950 .         S 
C662    H663      0.950 .         S 
C664    H665      0.950 .         S 
C666    H667      0.950 .         S 
C668    H669      0.949 .         S 
C670    H671      0.950 .         S 
C1158   H673      0.949 .         S 
C674    C676      1.513 .         S 
Ni677   N683      2.027 .         S 
Ni677   N1168     2.038 .         S 
O1137   Ni677     2.079 .         S 
O1140   Ni677     2.143 .         S 
C684    H793      0.950 1_554     S 
C738    H685      0.950 .         S 
C687    H688      0.950 .         S 
C689    H798      0.950 1_554     S 
C743    H690      0.950 .         S 
C691    H1178     0.950 .         S 
C1179   H694      0.950 .         S 
C695    H696      0.949 .         S 
C697    H698      0.950 .         S 
C699    H700      0.949 .         S 
C701    C811      1.513 1_554     S 
C902    C702      1.504 .         S 
C755    C703      1.513 .         S 
Ni704   N709      2.038 .         S 
Ni704   N710      2.027 .         S 
Ni704   O732      2.079 .         S 
Ni704   O733      2.091 .         S 
Ni704   O734      2.135 .         S 
Ni704   O735      2.143 .         S 
O706    Ni731     2.091 .         S 
O707    Ni731     2.135 .         S 
C711    H712      0.950 .         S 
C713    C891      1.504 .         S 
C714    H1201     0.950 .         S 
C716    H717      0.950 .         S 
C718    H719      0.950 .         S 
C720    H721      0.950 .         S 
C722    H723      0.949 .         S 
C724    H725      0.950 .         S 
C1212   H727      0.949 .         S 
C728    C730      1.513 .         S 
Ni731   N737      2.027 .         S 
Ni731   N1222     2.038 .         S 
O1191   Ni731     2.079 .         S 
O1194   Ni731     2.143 .         S 
C792    H739      0.950 .         S 
C741    H742      0.950 .         S 
C797    H744      0.950 .         S 
C745    H1232     0.950 .         S 
C1233   H748      0.950 .         S 
C749    H750      0.949 .         S 
C751    H752      0.950 .         S 
C753    H754      0.949 .         S 
C956    C756      1.504 .         S 
C809    C757      1.513 .         S 
Ni758   N763      2.038 .         S 
Ni758   N764      2.027 .         S 
Ni758   O786      2.079 .         S 
Ni758   O787      2.091 .         S 
Ni758   O788      2.135 .         S 
Ni758   O789      2.143 .         S 
O760    Ni785     2.091 .         S 
O761    Ni785     2.135 .         S 
C765    H766      0.950 .         S 
C767    C945      1.504 .         S 
C768    H1255     0.950 .         S 
C770    H771      0.950 .         S 
C772    H773      0.950 .         S 
C774    H775      0.950 .         S 
C776    H777      0.949 .         S 
C778    H779      0.950 .         S 
C1266   H781      0.949 .         S 
C782    C784      1.513 .         S 
Ni785   N791      2.027 .         S 
Ni785   N1276     2.038 .         S 
O1245   Ni785     2.079 .         S 
O1248   Ni785     2.143 .         S 
C795    H796      0.950 .         S 
C799    H1286     0.950 .         S 
C1287   H802      0.950 .         S 
C803    H804      0.949 .         S 
C805    H806      0.950 .         S 
C807    H808      0.949 .         S 
C848    C810      1.504 1_554     S 
Ni812   N817      2.038 .         S 
Ni812   N818      2.027 .         S 
Ni812   O840      2.079 .         S 
Ni812   O841      2.091 .         S 
Ni812   O842      2.135 .         S 
Ni812   O843      2.143 .         S 
O814    Ni839     2.091 .         S 
O815    Ni839     2.135 .         S 
C819    H820      0.950 .         S 
C822    H1309     0.950 .         S 
C824    H825      0.950 .         S 
C826    H827      0.950 .         S 
C828    H829      0.950 .         S 
C830    H831      0.949 .         S 
C832    H833      0.950 .         S 
C1320   H835      0.949 .         S 
C836    C838      1.513 .         S 
Ni839   N845      2.027 .         S 
Ni839   N1330     2.038 .         S 
O1299   Ni839     2.079 .         S 
O1302   Ni839     2.143 .         S 
C846    H955      0.950 1_554     S 
C900    H847      0.950 .         S 
C849    H850      0.950 .         S 
C851    H960      0.950 1_554     S 
C905    H852      0.950 .         S 
C853    H1340     0.950 .         S 
C1341   H856      0.950 .         S 
C857    H858      0.949 .         S 
C859    H860      0.950 .         S 
C861    H862      0.949 .         S 
C863    C973      1.513 1_554     S 
C917    C865      1.513 .         S 
Ni866   N871      2.038 .         S 
Ni866   N872      2.027 .         S 
Ni866   O894      2.079 .         S 
Ni866   O895      2.091 .         S 
Ni866   O896      2.135 .         S 
Ni866   O897      2.143 .         S 
O868    Ni893     2.091 .         S 
O869    Ni893     2.135 .         S 
C873    H874      0.950 .         S 
C876    H1363     0.950 .         S 
C878    H879      0.950 .         S 
C880    H881      0.950 .         S 
C882    H883      0.950 .         S 
C884    H885      0.949 .         S 
C886    H887      0.950 .         S 
C1374   H889      0.949 .         S 
C890    C892      1.513 .         S 
Ni893   N899      2.027 .         S 
Ni893   N1384     2.038 .         S 
O1353   Ni893     2.079 .         S 
O1356   Ni893     2.143 .         S 
C954    H901      0.950 .         S 
C903    H904      0.950 .         S 
C959    H906      0.950 .         S 
C907    H1394     0.950 .         S 
C1395   H910      0.950 .         S 
C911    H912      0.949 .         S 
C913    H914      0.950 .         S 
C915    H916      0.949 .         S 
C971    C919      1.513 .         S 
Ni920   N925      2.038 .         S 
Ni920   N926      2.027 .         S 
Ni920   O948      2.079 .         S 
Ni920   O949      2.091 .         S 
Ni920   O950      2.135 .         S 
Ni920   O951      2.143 .         S 
O922    Ni947     2.091 .         S 
O923    Ni947     2.135 .         S 
C927    H928      0.950 .         S 
C930    H1417     0.950 .         S 
C932    H933      0.950 .         S 
C934    H935      0.950 .         S 
C936    H937      0.950 .         S 
C938    H939      0.949 .         S 
C940    H941      0.950 .         S 
C1428   H943      0.949 .         S 
C944    C946      1.513 .         S 
Ni947   N953      2.027 .         S 
Ni947   N1438     2.038 .         S 
O1407   Ni947     2.079 .         S 
O1410   Ni947     2.143 .         S 
C957    H958      0.950 .         S 
C961    H1448     0.950 .         S 
C1449   H964      0.950 .         S 
C965    H966      0.949 .         S 
C967    H968      0.950 .         S 
C969    H970      0.949 .         S 
Ni974   N979      2.038 .         S 
Ni974   N980      2.027 .         S 
Ni974   O1002     2.079 .         S 
Ni974   O1003     2.091 .         S 
Ni974   O1004     2.135 .         S 
Ni974   O1005     2.143 .         S 
O976    Ni1001    2.091 .         S 
O977    Ni1001    2.135 .         S 
C981    H982      0.950 .         S 
C983    C1161     1.504 .         S 
C984    H1471     0.950 .         S 
C986    H987      0.950 .         S 
C988    H989      0.950 .         S 
C990    H991      0.950 .         S 
C992    H993      0.949 .         S 
C994    H995      0.950 .         S 
C1482   H997      0.949 .         S 
C998    C1000     1.513 .         S 
C1307   C999      1.504 1_565     S 
Ni1001  N1007     2.027 .         S 
Ni1001  N1492     2.038 .         S 
O1461   Ni1001    2.079 .         S 
O1464   Ni1001    2.143 .         S 
C1008   H1117     0.950 1_554     S 
C1062   H1009     0.950 .         S 
C1010   C1458     1.504 1_544     S 
C1011   H1012     0.950 .         S 
C1013   H1122     0.950 1_554     S 
C1067   H1014     0.950 .         S 
C1015   H1502     0.950 .         S 
C1503   H1018     0.950 .         S 
C1019   H1020     0.949 .         S 
C1021   H1022     0.950 .         S 
C1023   H1024     0.949 .         S 
C1025   C1135     1.513 1_554     S 
C1226   C1026     1.504 .         S 
C1079   C1027     1.513 .         S 
Ni1028  N1033     2.038 .         S 
Ni1028  N1034     2.027 .         S 
Ni1028  O1056     2.079 .         S 
Ni1028  O1057     2.091 .         S 
Ni1028  O1058     2.135 .         S 
Ni1028  O1059     2.143 .         S 
O1030   Ni1055    2.091 .         S 
O1031   Ni1055    2.135 .         S 
C1035   H1036     0.950 .         S 
C1037   C1215     1.504 .         S 
C1038   H1525     0.950 .         S 
C1040   H1041     0.950 .         S 
C1042   H1043     0.950 .         S 
C1044   H1045     0.950 .         S 
C1046   H1047     0.949 .         S 
C1048   H1049     0.950 .         S 
C1536   H1051     0.949 .         S 
C1052   C1054     1.513 .         S 
C1361   C1053     1.504 1_565     S 
Ni1055  N1061     2.027 .         S 
Ni1055  N1546     2.038 .         S 
O1515   Ni1055    2.079 .         S 
O1518   Ni1055    2.143 .         S 
C1116   H1063     0.950 .         S 
C1064   C1350     1.504 1_545     S 
C1065   H1066     0.950 .         S 
C1121   H1068     0.950 .         S 
C1069   H1556     0.950 .         S 
C1557   H1072     0.950 .         S 
C1073   H1074     0.949 .         S 
C1075   H1076     0.950 .         S 
C1077   H1078     0.949 .         S 
C1280   C1080     1.504 .         S 
C1133   C1081     1.513 .         S 
Ni1082  N1087     2.038 .         S 
Ni1082  N1088     2.027 .         S 
Ni1082  O1110     2.079 .         S 
Ni1082  O1111     2.091 .         S 
Ni1082  O1112     2.135 .         S 
Ni1082  O1113     2.143 .         S 
O1084   Ni1109    2.091 .         S 
O1085   Ni1109    2.135 .         S 
C1089   H1090     0.950 .         S 
C1091   C1269     1.504 .         S 
C1092   H1579     0.950 .         S 
C1094   H1095     0.950 .         S 
C1096   H1097     0.950 .         S 
C1098   H1099     0.950 .         S 
C1100   H1101     0.949 .         S 
C1102   H1103     0.950 .         S 
C1590   H1105     0.949 .         S 
C1106   C1108     1.513 .         S 
C1415   C1107     1.504 1_565     S 
Ni1109  N1115     2.027 .         S 
Ni1109  N1600     2.038 .         S 
O1569   Ni1109    2.079 .         S 
O1572   Ni1109    2.143 .         S 
C1118   C1404     1.504 1_545     S 
C1119   H1120     0.950 .         S 
C1123   H1610     0.950 .         S 
C1611   H1126     0.950 .         S 
C1127   H1128     0.949 .         S 
C1129   H1130     0.950 .         S 
C1131   H1132     0.949 .         S 
C1172   C1134     1.504 1_554     S 
Ni1136  N1141     2.038 .         S 
Ni1136  N1142     2.027 .         S 
Ni1136  O1164     2.079 .         S 
Ni1136  O1165     2.091 .         S 
Ni1136  O1166     2.135 .         S 
Ni1136  O1167     2.143 .         S 
O1138   Ni1163    2.091 .         S 
O1139   Ni1163    2.135 .         S 
C1143   H1144     0.950 .         S 
C1145   C1323     1.504 .         S 
C1146   H1633     0.950 .         S 
C1148   H1149     0.950 .         S 
C1150   H1151     0.950 .         S 
C1152   H1153     0.950 .         S 
C1154   H1155     0.949 .         S 
C1156   H1157     0.950 .         S 
C1644   H1159     0.949 .         S 
C1160   C1162     1.513 .         S 
Ni1163  N1169     2.027 .         S 
Ni1163  N1654     2.038 .         S 
O1623   Ni1163    2.079 .         S 
O1626   Ni1163    2.143 .         S 
C1170   H1279     0.950 1_554     S 
C1224   H1171     0.950 .         S 
C1173   H1174     0.950 .         S 
C1175   H1284     0.950 1_554     S 
C1229   H1176     0.950 .         S 
C1177   H1664     0.950 .         S 
C1665   H1180     0.950 .         S 
C1181   H1182     0.949 .         S 
C1183   H1184     0.950 .         S 
C1185   H1186     0.949 .         S 
C1187   C1297     1.513 1_554     S 
C1388   C1188     1.504 .         S 
C1241   C1189     1.513 .         S 
Ni1190  N1195     2.038 .         S 
Ni1190  N1196     2.027 .         S 
Ni1190  O1218     2.079 .         S 
Ni1190  O1219     2.091 .         S 
Ni1190  O1220     2.135 .         S 
Ni1190  O1221     2.143 .         S 
O1192   Ni1217    2.091 .         S 
O1193   Ni1217    2.135 .         S 
C1197   H1198     0.950 .         S 
C1199   C1377     1.504 .         S 
C1200   H1687     0.950 .         S 
C1202   H1203     0.950 .         S 
C1204   H1205     0.950 .         S 
C1206   H1207     0.950 .         S 
C1208   H1209     0.949 .         S 
C1210   H1211     0.950 .         S 
C1698   H1213     0.949 .         S 
C1214   C1216     1.513 .         S 
Ni1217  N1223     2.027 .         S 
Ni1217  N1708     2.038 .         S 
O1677   Ni1217    2.079 .         S 
O1680   Ni1217    2.143 .         S 
C1278   H1225     0.950 .         S 
C1227   H1228     0.950 .         S 
C1283   H1230     0.950 .         S 
C1231   H1718     0.950 .         S 
C1719   H1234     0.950 .         S 
C1235   H1236     0.949 .         S 
C1237   H1238     0.950 .         S 
C1239   H1240     0.949 .         S 
C1442   C1242     1.504 .         S 
C1295   C1243     1.513 .         S 
Ni1244  N1249     2.038 .         S 
Ni1244  N1250     2.027 .         S 
Ni1244  O1272     2.079 .         S 
Ni1244  O1273     2.091 .         S 
Ni1244  O1274     2.135 .         S 
Ni1244  O1275     2.143 .         S 
O1246   Ni1271    2.091 .         S 
O1247   Ni1271    2.135 .         S 
C1251   H1252     0.950 .         S 
C1253   C1431     1.504 .         S 
C1254   H1741     0.950 .         S 
C1256   H1257     0.950 .         S 
C1258   H1259     0.950 .         S 
C1260   H1261     0.950 .         S 
C1262   H1263     0.949 .         S 
C1264   H1265     0.950 .         S 
C1752   H1267     0.949 .         S 
C1268   C1270     1.513 .         S 
Ni1271  N1277     2.027 .         S 
Ni1271  N1762     2.038 .         S 
O1731   Ni1271    2.079 .         S 
O1734   Ni1271    2.143 .         S 
C1281   H1282     0.950 .         S 
C1285   H1772     0.950 .         S 
C1773   H1288     0.950 .         S 
C1289   H1290     0.949 .         S 
C1291   H1292     0.950 .         S 
C1293   H1294     0.949 .         S 
C1334   C1296     1.504 1_554     S 
Ni1298  N1303     2.038 .         S 
Ni1298  N1304     2.027 .         S 
Ni1298  O1326     2.079 .         S 
Ni1298  O1327     2.091 .         S 
Ni1298  O1328     2.135 .         S 
Ni1298  O1329     2.143 .         S 
O1300   Ni1325    2.091 .         S 
O1301   Ni1325    2.135 .         S 
C1305   H1306     0.950 .         S 
C1308   H1795     0.950 .         S 
C1310   H1311     0.950 .         S 
C1312   H1313     0.950 .         S 
C1314   H1315     0.950 .         S 
C1316   H1317     0.949 .         S 
C1318   H1319     0.950 .         S 
C1806   H1321     0.949 .         S 
C1322   C1324     1.513 .         S 
Ni1325  N1331     2.027 .         S 
Ni1325  N1816     2.038 .         S 
O1785   Ni1325    2.079 .         S 
O1788   Ni1325    2.143 .         S 
C1332   H1441     0.950 1_554     S 
C1386   H1333     0.950 .         S 
C1335   H1336     0.950 .         S 
C1337   H1446     0.950 1_554     S 
C1391   H1338     0.950 .         S 
C1339   H1826     0.950 .         S 
C1827   H1342     0.950 .         S 
C1343   H1344     0.949 .         S 
C1345   H1346     0.950 .         S 
C1347   H1348     0.949 .         S 
C1349   C1459     1.513 1_554     S 
C1403   C1351     1.513 .         S 
Ni1352  N1357     2.038 .         S 
Ni1352  N1358     2.027 .         S 
Ni1352  O1380     2.079 .         S 
Ni1352  O1381     2.091 .         S 
Ni1352  O1382     2.135 .         S 
Ni1352  O1383     2.143 .         S 
O1354   Ni1379    2.091 .         S 
O1355   Ni1379    2.135 .         S 
C1359   H1360     0.950 .         S 
C1362   H1849     0.950 .         S 
C1364   H1365     0.950 .         S 
C1366   H1367     0.950 .         S 
C1368   H1369     0.950 .         S 
C1370   H1371     0.949 .         S 
C1372   H1373     0.950 .         S 
C1860   H1375     0.949 .         S 
C1376   C1378     1.513 .         S 
Ni1379  N1385     2.027 .         S 
Ni1379  N1870     2.038 .         S 
O1839   Ni1379    2.079 .         S 
O1842   Ni1379    2.143 .         S 
C1440   H1387     0.950 .         S 
C1389   H1390     0.950 .         S 
C1445   H1392     0.950 .         S 
C1393   H1880     0.950 .         S 
C1881   H1396     0.950 .         S 
C1397   H1398     0.949 .         S 
C1399   H1400     0.950 .         S 
C1401   H1402     0.949 .         S 
C1457   C1405     1.513 .         S 
Ni1406  N1411     2.038 .         S 
Ni1406  N1412     2.027 .         S 
Ni1406  O1434     2.079 .         S 
Ni1406  O1435     2.091 .         S 
Ni1406  O1436     2.135 .         S 
Ni1406  O1437     2.143 .         S 
O1408   Ni1433    2.091 .         S 
O1409   Ni1433    2.135 .         S 
C1413   H1414     0.950 .         S 
C1416   H1903     0.950 .         S 
C1418   H1419     0.950 .         S 
C1420   H1421     0.950 .         S 
C1422   H1423     0.950 .         S 
C1424   H1425     0.949 .         S 
C1426   H1427     0.950 .         S 
C1914   H1429     0.949 .         S 
C1430   C1432     1.513 .         S 
Ni1433  N1439     2.027 .         S 
Ni1433  N1924     2.038 .         S 
O1893   Ni1433    2.079 .         S 
O1896   Ni1433    2.143 .         S 
C1443   H1444     0.950 .         S 
C1447   H1934     0.950 .         S 
C1935   H1450     0.950 .         S 
C1451   H1452     0.949 .         S 
C1453   H1454     0.950 .         S 
C1455   H1456     0.949 .         S 
Ni1460  N1465     2.038 .         S 
Ni1460  N1466     2.027 .         S 
Ni1460  O1488     2.079 .         S 
Ni1460  O1489     2.091 .         S 
Ni1460  O1490     2.135 .         S 
Ni1460  O1491     2.143 .         S 
O1462   Ni1487    2.091 .         S 
O1463   Ni1487    2.135 .         S 
C1467   H1468     0.950 .         S 
C1469   C1647     1.504 .         S 
C1470   H1957     0.950 .         S 
C1472   H1473     0.950 .         S 
C1474   H1475     0.950 .         S 
C1476   H1477     0.950 .         S 
C1478   H1479     0.949 .         S 
C1480   H1481     0.950 .         S 
C1968   H1483     0.949 .         S 
C1484   C1486     1.513 .         S 
C1793   C1485     1.504 1_565     S 
Ni1487  N1493     2.027 .         S 
Ni1487  N1978     2.038 .         S 
O1947   Ni1487    2.079 .         S 
O1950   Ni1487    2.143 .         S 
C1494   H1603     0.950 1_554     S 
C1548   H1495     0.950 .         S 
C1496   C1944     1.504 1_544     S 
C1497   H1498     0.950 .         S 
C1499   H1608     0.950 1_554     S 
C1553   H1500     0.950 .         S 
C1501   H1988     0.950 .         S 
C1989   H1504     0.950 .         S 
C1505   H1506     0.949 .         S 
C1507   H1508     0.950 .         S 
C1509   H1510     0.949 .         S 
C1511   C1621     1.513 1_554     S 
C1712   C1512     1.504 .         S 
C1565   C1513     1.513 .         S 
Ni1514  N1519     2.038 .         S 
Ni1514  N1520     2.027 .         S 
Ni1514  O1542     2.079 .         S 
Ni1514  O1543     2.091 .         S 
Ni1514  O1544     2.135 .         S 
Ni1514  O1545     2.143 .         S 
O1516   Ni1541    2.091 .         S 
O1517   Ni1541    2.135 .         S 
C1521   H1522     0.950 .         S 
C1523   C1701     1.504 .         S 
C1524   H2011     0.950 .         S 
C1526   H1527     0.950 .         S 
C1528   H1529     0.950 .         S 
C1530   H1531     0.950 .         S 
C1532   H1533     0.949 .         S 
C1534   H1535     0.950 .         S 
C2022   H1537     0.949 .         S 
C1538   C1540     1.513 .         S 
C1847   C1539     1.504 1_565     S 
Ni1541  N1547     2.027 .         S 
Ni1541  N2032     2.038 .         S 
O2001   Ni1541    2.079 .         S 
O2004   Ni1541    2.143 .         S 
C1602   H1549     0.950 .         S 
C1550   C1836     1.504 1_545     S 
C1551   H1552     0.950 .         S 
C1607   H1554     0.950 .         S 
C1555   H2042     0.950 .         S 
C2043   H1558     0.950 .         S 
C1559   H1560     0.949 .         S 
C1561   H1562     0.950 .         S 
C1563   H1564     0.949 .         S 
C1766   C1566     1.504 .         S 
C1619   C1567     1.513 .         S 
Ni1568  N1573     2.038 .         S 
Ni1568  N1574     2.027 .         S 
Ni1568  O1596     2.079 .         S 
Ni1568  O1597     2.091 .         S 
Ni1568  O1598     2.135 .         S 
Ni1568  O1599     2.143 .         S 
O1570   Ni1595    2.091 .         S 
O1571   Ni1595    2.135 .         S 
C1575   H1576     0.950 .         S 
C1577   C1755     1.504 .         S 
C1578   H2065     0.950 .         S 
C1580   H1581     0.950 .         S 
C1582   H1583     0.950 .         S 
C1584   H1585     0.950 .         S 
C1586   H1587     0.949 .         S 
C1588   H1589     0.950 .         S 
C2076   H1591     0.949 .         S 
C1592   C1594     1.513 .         S 
C1901   C1593     1.504 1_565     S 
Ni1595  N1601     2.027 .         S 
Ni1595  N2086     2.038 .         S 
O2055   Ni1595    2.079 .         S 
O2058   Ni1595    2.143 .         S 
C1604   C1890     1.504 1_545     S 
C1605   H1606     0.950 .         S 
C1609   H2096     0.950 .         S 
C2097   H1612     0.950 .         S 
C1613   H1614     0.949 .         S 
C1615   H1616     0.950 .         S 
C1617   H1618     0.949 .         S 
C1658   C1620     1.504 1_554     S 
Ni1622  N1627     2.038 .         S 
Ni1622  N1628     2.027 .         S 
Ni1622  O1650     2.079 .         S 
Ni1622  O1651     2.091 .         S 
Ni1622  O1652     2.135 .         S 
Ni1622  O1653     2.143 .         S 
O1624   Ni1649    2.091 .         S 
O1625   Ni1649    2.135 .         S 
C1629   H1630     0.950 .         S 
C1631   C1809     1.504 .         S 
C1632   H2119     0.950 .         S 
C1634   H1635     0.950 .         S 
C1636   H1637     0.950 .         S 
C1638   H1639     0.950 .         S 
C1640   H1641     0.949 .         S 
C1642   H1643     0.950 .         S 
C2130   H1645     0.949 .         S 
C1646   C1648     1.513 .         S 
Ni1649  N1655     2.027 .         S 
Ni1649  N2140     2.038 .         S 
O2109   Ni1649    2.079 .         S 
O2112   Ni1649    2.143 .         S 
C1656   H1765     0.950 1_554     S 
C1710   H1657     0.950 .         S 
C1659   H1660     0.950 .         S 
C1661   H1770     0.950 1_554     S 
C1715   H1662     0.950 .         S 
C1663   H2150     0.950 .         S 
C2151   H1666     0.950 .         S 
C1667   H1668     0.949 .         S 
C1669   H1670     0.950 .         S 
C1671   H1672     0.949 .         S 
C1673   C1783     1.513 1_554     S 
C1874   C1674     1.504 .         S 
C1727   C1675     1.513 .         S 
Ni1676  N1681     2.038 .         S 
Ni1676  N1682     2.027 .         S 
Ni1676  O1704     2.079 .         S 
Ni1676  O1705     2.091 .         S 
Ni1676  O1706     2.135 .         S 
Ni1676  O1707     2.143 .         S 
O1678   Ni1703    2.091 .         S 
O1679   Ni1703    2.135 .         S 
C1683   H1684     0.950 .         S 
C1685   C1863     1.504 .         S 
C1686   H2173     0.950 .         S 
C1688   H1689     0.950 .         S 
C1690   H1691     0.950 .         S 
C1692   H1693     0.950 .         S 
C1694   H1695     0.949 .         S 
C1696   H1697     0.950 .         S 
C2184   H1699     0.949 .         S 
C1700   C1702     1.513 .         S 
Ni1703  N1709     2.027 .         S 
Ni1703  N2194     2.038 .         S 
O2163   Ni1703    2.079 .         S 
O2166   Ni1703    2.143 .         S 
C1764   H1711     0.950 .         S 
C1713   H1714     0.950 .         S 
C1769   H1716     0.950 .         S 
C1717   H2204     0.950 .         S 
C2205   H1720     0.950 .         S 
C1721   H1722     0.949 .         S 
C1723   H1724     0.950 .         S 
C1725   H1726     0.949 .         S 
C1928   C1728     1.504 .         S 
C1781   C1729     1.513 .         S 
Ni1730  N1735     2.038 .         S 
Ni1730  N1736     2.027 .         S 
Ni1730  O1758     2.079 .         S 
Ni1730  O1759     2.091 .         S 
Ni1730  O1760     2.135 .         S 
Ni1730  O1761     2.143 .         S 
O1732   Ni1757    2.091 .         S 
O1733   Ni1757    2.135 .         S 
C1737   H1738     0.950 .         S 
C1739   C1917     1.504 .         S 
C1740   H2227     0.950 .         S 
C1742   H1743     0.950 .         S 
C1744   H1745     0.950 .         S 
C1746   H1747     0.950 .         S 
C1748   H1749     0.949 .         S 
C1750   H1751     0.950 .         S 
C2238   H1753     0.949 .         S 
C1754   C1756     1.513 .         S 
Ni1757  N1763     2.027 .         S 
Ni1757  N2248     2.038 .         S 
O2217   Ni1757    2.079 .         S 
O2220   Ni1757    2.143 .         S 
C1767   H1768     0.950 .         S 
C1771   H2258     0.950 .         S 
C2259   H1774     0.950 .         S 
C1775   H1776     0.949 .         S 
C1777   H1778     0.950 .         S 
C1779   H1780     0.949 .         S 
C1820   C1782     1.504 1_554     S 
Ni1784  N1789     2.038 .         S 
Ni1784  N1790     2.027 .         S 
Ni1784  O1812     2.079 .         S 
Ni1784  O1813     2.091 .         S 
Ni1784  O1814     2.135 .         S 
Ni1784  O1815     2.143 .         S 
O1786   Ni1811    2.091 .         S 
O1787   Ni1811    2.135 .         S 
C1791   H1792     0.950 .         S 
C1794   H2281     0.950 .         S 
C1796   H1797     0.950 .         S 
C1798   H1799     0.950 .         S 
C1800   H1801     0.950 .         S 
C1802   H1803     0.949 .         S 
C1804   H1805     0.950 .         S 
C2292   H1807     0.949 .         S 
C1808   C1810     1.513 .         S 
Ni1811  N1817     2.027 .         S 
Ni1811  N2302     2.038 .         S 
O2271   Ni1811    2.079 .         S 
O2274   Ni1811    2.143 .         S 
C1818   H1927     0.950 1_554     S 
C1872   H1819     0.950 .         S 
C1821   H1822     0.950 .         S 
C1823   H1932     0.950 1_554     S 
C1877   H1824     0.950 .         S 
C1825   H2312     0.950 .         S 
C2313   H1828     0.950 .         S 
C1829   H1830     0.949 .         S 
C1831   H1832     0.950 .         S 
C1833   H1834     0.949 .         S 
C1835   C1945     1.513 1_554     S 
C1889   C1837     1.513 .         S 
Ni1838  N1843     2.038 .         S 
Ni1838  N1844     2.027 .         S 
Ni1838  O1866     2.079 .         S 
Ni1838  O1867     2.091 .         S 
Ni1838  O1868     2.135 .         S 
Ni1838  O1869     2.143 .         S 
O1840   Ni1865    2.091 .         S 
O1841   Ni1865    2.135 .         S 
C1845   H1846     0.950 .         S 
C1848   H2335     0.950 .         S 
C1850   H1851     0.950 .         S 
C1852   H1853     0.950 .         S 
C1854   H1855     0.950 .         S 
C1856   H1857     0.949 .         S 
C1858   H1859     0.950 .         S 
C2346   H1861     0.949 .         S 
C1862   C1864     1.513 .         S 
Ni1865  N1871     2.027 .         S 
Ni1865  N2356     2.038 .         S 
O2325   Ni1865    2.079 .         S 
O2328   Ni1865    2.143 .         S 
C1926   H1873     0.950 .         S 
C1875   H1876     0.950 .         S 
C1931   H1878     0.950 .         S 
C1879   H2366     0.950 .         S 
C2367   H1882     0.950 .         S 
C1883   H1884     0.949 .         S 
C1885   H1886     0.950 .         S 
C1887   H1888     0.949 .         S 
C1943   C1891     1.513 .         S 
Ni1892  N1897     2.038 .         S 
Ni1892  N1898     2.027 .         S 
Ni1892  O1920     2.079 .         S 
Ni1892  O1921     2.091 .         S 
Ni1892  O1922     2.135 .         S 
Ni1892  O1923     2.143 .         S 
O1894   Ni1919    2.091 .         S 
O1895   Ni1919    2.135 .         S 
C1899   H1900     0.950 .         S 
C1902   H2389     0.950 .         S 
C1904   H1905     0.950 .         S 
C1906   H1907     0.950 .         S 
C1908   H1909     0.950 .         S 
C1910   H1911     0.949 .         S 
C1912   H1913     0.950 .         S 
C2400   H1915     0.949 .         S 
C1916   C1918     1.513 .         S 
Ni1919  N1925     2.027 .         S 
Ni1919  N2410     2.038 .         S 
O2379   Ni1919    2.079 .         S 
O2382   Ni1919    2.143 .         S 
C1929   H1930     0.950 .         S 
C1933   H2420     0.950 .         S 
C2421   H1936     0.950 .         S 
C1937   H1938     0.949 .         S 
C1939   H1940     0.950 .         S 
C1941   H1942     0.949 .         S 
Ni1946  N1951     2.038 .         S 
Ni1946  N1952     2.027 .         S 
Ni1946  O1974     2.079 .         S 
Ni1946  O1975     2.091 .         S 
Ni1946  O1976     2.135 .         S 
Ni1946  O1977     2.143 .         S 
O1948   Ni1973    2.091 .         S 
O1949   Ni1973    2.135 .         S 
C1953   H1954     0.950 .         S 
C1955   C2133     1.504 .         S 
C1958   H1959     0.950 .         S 
C1960   H1961     0.950 .         S 
C1962   H1963     0.950 .         S 
C1964   H1965     0.949 .         S 
C1966   H1967     0.950 .         S 
C1970   C1972     1.513 .         S 
C2279   C1971     1.504 1_565     S 
Ni1973  N1979     2.027 .         S 
C1980   H2089     0.950 1_554     S 
C2034   H1981     0.950 .         S 
C1982   C2430     1.504 1_544     S 
C1983   H1984     0.950 .         S 
C1985   H2094     0.950 1_554     S 
C2039   H1986     0.950 .         S 
C1991   H1992     0.949 .         S 
C1993   H1994     0.950 .         S 
C1995   H1996     0.949 .         S 
C1997   C2107     1.513 1_554     S 
C2198   C1998     1.504 .         S 
C2051   C1999     1.513 .         S 
Ni2000  N2005     2.038 .         S 
Ni2000  N2006     2.027 .         S 
Ni2000  O2028     2.079 .         S 
Ni2000  O2029     2.091 .         S 
Ni2000  O2030     2.135 .         S 
Ni2000  O2031     2.143 .         S 
O2002   Ni2027    2.091 .         S 
O2003   Ni2027    2.135 .         S 
C2007   H2008     0.950 .         S 
C2009   C2187     1.504 .         S 
C2012   H2013     0.950 .         S 
C2014   H2015     0.950 .         S 
C2016   H2017     0.950 .         S 
C2018   H2019     0.949 .         S 
C2020   H2021     0.950 .         S 
C2024   C2026     1.513 .         S 
C2333   C2025     1.504 1_565     S 
Ni2027  N2033     2.027 .         S 
C2088   H2035     0.950 .         S 
C2036   C2322     1.504 1_545     S 
C2037   H2038     0.950 .         S 
C2093   H2040     0.950 .         S 
C2045   H2046     0.949 .         S 
C2047   H2048     0.950 .         S 
C2049   H2050     0.949 .         S 
C2252   C2052     1.504 .         S 
C2105   C2053     1.513 .         S 
Ni2054  N2059     2.038 .         S 
Ni2054  N2060     2.027 .         S 
Ni2054  O2082     2.079 .         S 
Ni2054  O2083     2.091 .         S 
Ni2054  O2084     2.135 .         S 
Ni2054  O2085     2.143 .         S 
O2056   Ni2081    2.091 .         S 
O2057   Ni2081    2.135 .         S 
C2061   H2062     0.950 .         S 
C2063   C2241     1.504 .         S 
C2066   H2067     0.950 .         S 
C2068   H2069     0.950 .         S 
C2070   H2071     0.950 .         S 
C2072   H2073     0.949 .         S 
C2074   H2075     0.950 .         S 
C2078   C2080     1.513 .         S 
C2387   C2079     1.504 1_565     S 
Ni2081  N2087     2.027 .         S 
C2090   C2376     1.504 1_545     S 
C2091   H2092     0.950 .         S 
C2099   H2100     0.949 .         S 
C2101   H2102     0.950 .         S 
C2103   H2104     0.949 .         S 
C2144   C2106     1.504 1_554     S 
Ni2108  N2113     2.038 .         S 
Ni2108  N2114     2.027 .         S 
Ni2108  O2136     2.079 .         S 
Ni2108  O2137     2.091 .         S 
Ni2108  O2138     2.135 .         S 
Ni2108  O2139     2.143 .         S 
O2110   Ni2135    2.091 .         S 
O2111   Ni2135    2.135 .         S 
C2115   H2116     0.950 .         S 
C2117   C2295     1.504 .         S 
C2120   H2121     0.950 .         S 
C2122   H2123     0.950 .         S 
C2124   H2125     0.950 .         S 
C2126   H2127     0.949 .         S 
C2128   H2129     0.950 .         S 
C2132   C2134     1.513 .         S 
Ni2135  N2141     2.027 .         S 
C2142   H2251     0.950 1_554     S 
C2196   H2143     0.950 .         S 
C2145   H2146     0.950 .         S 
C2147   H2256     0.950 1_554     S 
C2201   H2148     0.950 .         S 
C2153   H2154     0.949 .         S 
C2155   H2156     0.950 .         S 
C2157   H2158     0.949 .         S 
C2159   C2269     1.513 1_554     S 
C2360   C2160     1.504 .         S 
C2213   C2161     1.513 .         S 
Ni2162  N2167     2.038 .         S 
Ni2162  N2168     2.027 .         S 
Ni2162  O2190     2.079 .         S 
Ni2162  O2191     2.091 .         S 
Ni2162  O2192     2.135 .         S 
Ni2162  O2193     2.143 .         S 
O2164   Ni2189    2.091 .         S 
O2165   Ni2189    2.135 .         S 
C2169   H2170     0.950 .         S 
C2171   C2349     1.504 .         S 
C2174   H2175     0.950 .         S 
C2176   H2177     0.950 .         S 
C2178   H2179     0.950 .         S 
C2180   H2181     0.949 .         S 
C2182   H2183     0.950 .         S 
C2186   C2188     1.513 .         S 
Ni2189  N2195     2.027 .         S 
C2250   H2197     0.950 .         S 
C2199   H2200     0.950 .         S 
C2255   H2202     0.950 .         S 
C2207   H2208     0.949 .         S 
C2209   H2210     0.950 .         S 
C2211   H2212     0.949 .         S 
C2414   C2214     1.504 .         S 
C2267   C2215     1.513 .         S 
Ni2216  N2221     2.038 .         S 
Ni2216  N2222     2.027 .         S 
Ni2216  O2244     2.079 .         S 
Ni2216  O2245     2.091 .         S 
Ni2216  O2246     2.135 .         S 
Ni2216  O2247     2.143 .         S 
O2218   Ni2243    2.091 .         S 
O2219   Ni2243    2.135 .         S 
C2223   H2224     0.950 .         S 
C2225   C2403     1.504 .         S 
C2228   H2229     0.950 .         S 
C2230   H2231     0.950 .         S 
C2232   H2233     0.950 .         S 
C2234   H2235     0.949 .         S 
C2236   H2237     0.950 .         S 
C2240   C2242     1.513 .         S 
Ni2243  N2249     2.027 .         S 
C2253   H2254     0.950 .         S 
C2261   H2262     0.949 .         S 
C2263   H2264     0.950 .         S 
C2265   H2266     0.949 .         S 
C2306   C2268     1.504 1_554     S 
Ni2270  N2275     2.038 .         S 
Ni2270  N2276     2.027 .         S 
Ni2270  O2298     2.079 .         S 
Ni2270  O2299     2.091 .         S 
Ni2270  O2300     2.135 .         S 
Ni2270  O2301     2.143 .         S 
O2272   Ni2297    2.091 .         S 
O2273   Ni2297    2.135 .         S 
C2277   H2278     0.950 .         S 
C2282   H2283     0.950 .         S 
C2284   H2285     0.950 .         S 
C2286   H2287     0.950 .         S 
C2288   H2289     0.949 .         S 
C2290   H2291     0.950 .         S 
C2294   C2296     1.513 .         S 
Ni2297  N2303     2.027 .         S 
C2304   H2413     0.950 1_554     S 
C2358   H2305     0.950 .         S 
C2307   H2308     0.950 .         S 
C2309   H2418     0.950 1_554     S 
C2363   H2310     0.950 .         S 
C2315   H2316     0.949 .         S 
C2317   H2318     0.950 .         S 
C2319   H2320     0.949 .         S 
C2321   C2431     1.513 1_554     S 
C2375   C2323     1.513 .         S 
Ni2324  N2329     2.038 .         S 
Ni2324  N2330     2.027 .         S 
Ni2324  O2352     2.079 .         S 
Ni2324  O2353     2.091 .         S 
Ni2324  O2354     2.135 .         S 
Ni2324  O2355     2.143 .         S 
O2326   Ni2351    2.091 .         S 
O2327   Ni2351    2.135 .         S 
C2331   H2332     0.950 .         S 
C2336   H2337     0.950 .         S 
C2338   H2339     0.950 .         S 
C2340   H2341     0.950 .         S 
C2342   H2343     0.949 .         S 
C2344   H2345     0.950 .         S 
C2348   C2350     1.513 .         S 
Ni2351  N2357     2.027 .         S 
C2412   H2359     0.950 .         S 
C2361   H2362     0.950 .         S 
C2417   H2364     0.950 .         S 
C2369   H2370     0.949 .         S 
C2371   H2372     0.950 .         S 
C2373   H2374     0.949 .         S 
C2429   C2377     1.513 .         S 
Ni2378  N2383     2.038 .         S 
Ni2378  N2384     2.027 .         S 
Ni2378  O2406     2.079 .         S 
Ni2378  O2407     2.091 .         S 
Ni2378  O2408     2.135 .         S 
Ni2378  O2409     2.143 .         S 
O2380   Ni2405    2.091 .         S 
O2381   Ni2405    2.135 .         S 
C2385   H2386     0.950 .         S 
C2390   H2391     0.950 .         S 
C2392   H2393     0.950 .         S 
C2394   H2395     0.950 .         S 
C2396   H2397     0.949 .         S 
C2398   H2399     0.950 .         S 
C2402   C2404     1.513 .         S 
Ni2405  N2411     2.027 .         S 
C2415   H2416     0.950 .         S 
C2423   H2424     0.949 .         S 
C2425   H2426     0.950 .         S 
C2427   H2428     0.949 .         S 
O2      C27       1.275 .         A 
O3      C26       1.274 .         A 
O4      C514      1.247 .         A 
O5      C1971     1.251 1_455     A 
N6      C17       1.343 .         A 
N6      C19       1.336 .         A 
N7      C15       1.341 .         A 
N7      C21       1.354 .         A 
C8      C10       1.384 .         A 
C8      C17       1.383 .         A 
C10     C11       1.397 .         A 
C11     C19       1.379 .         A 
C13     C15       1.391 .         A 
C13     C25       1.377 .         A 
C21     C23       1.380 .         A 
C23     C25       1.399 .         A 
O492    C26       1.251 .         A 
O1949   C27       1.247 1_655     A 
O29     C54       1.275 .         A 
O30     C53       1.274 .         A 
O31     C54       1.247 .         A 
O32     C53       1.251 .         A 
N33     C44       1.343 .         A 
N33     C46       1.336 .         A 
N34     C42       1.341 .         A 
N34     C48       1.354 .         A 
C35     C37       1.384 .         A 
C35     C44       1.383 .         A 
C37     C38       1.397 .         A 
C38     C46       1.379 .         A 
C40     C42       1.391 .         A 
C40     C52       1.377 .         A 
C48     C50       1.380 .         A 
C50     C52       1.399 .         A 
O57     C82       1.275 .         A 
O58     C81       1.274 .         A 
O59     C568      1.247 .         A 
O60     C2025     1.251 1_455     A 
N61     C72       1.343 .         A 
N61     C74       1.336 .         A 
N62     C70       1.341 .         A 
N62     C76       1.354 .         A 
C63     C65       1.384 .         A 
C63     C72       1.383 .         A 
C65     C66       1.397 .         A 
C66     C74       1.379 .         A 
C68     C70       1.391 .         A 
C68     C80       1.377 .         A 
C76     C78       1.380 .         A 
C78     C80       1.399 .         A 
O546    C81       1.251 .         A 
O2003   C82       1.247 1_655     A 
O84     C109      1.275 .         A 
O85     C108      1.274 .         A 
O86     C109      1.247 .         A 
O87     C108      1.251 .         A 
N88     C99       1.343 .         A 
N88     C101      1.336 .         A 
N89     C97       1.341 .         A 
N89     C103      1.354 .         A 
C90     C92       1.384 .         A 
C90     C99       1.383 .         A 
C92     C93       1.397 .         A 
C93     C101      1.379 .         A 
C95     C97       1.391 .         A 
C95     C107      1.377 .         A 
C103    C105      1.380 .         A 
C105    C107      1.399 .         A 
O111    C136      1.275 .         A 
O112    C135      1.274 .         A 
O113    C622      1.247 .         A 
O114    C2079     1.251 1_455     A 
N115    C126      1.343 .         A 
N115    C128      1.336 .         A 
N116    C124      1.341 .         A 
N116    C130      1.354 .         A 
C117    C119      1.384 .         A 
C117    C126      1.383 .         A 
C119    C120      1.397 .         A 
C120    C128      1.379 .         A 
C122    C124      1.391 .         A 
C122    C134      1.377 .         A 
C130    C132      1.380 .         A 
C132    C134      1.399 .         A 
O600    C135      1.251 .         A 
O2057   C136      1.247 1_655     A 
O138    C163      1.275 .         A 
O139    C162      1.274 .         A 
O140    C163      1.247 .         A 
O141    C162      1.251 .         A 
N142    C153      1.343 .         A 
N142    C155      1.336 .         A 
N143    C151      1.341 .         A 
N143    C157      1.354 .         A 
C144    C146      1.384 .         A 
C144    C153      1.383 .         A 
C146    C147      1.397 .         A 
C147    C155      1.379 .         A 
C149    C151      1.391 .         A 
C149    C161      1.377 .         A 
C157    C159      1.380 .         A 
C159    C161      1.399 .         A 
O165    C190      1.275 .         A 
O166    C189      1.274 .         A 
O167    C676      1.247 .         A 
O168    C2133     1.251 1_455     A 
N169    C180      1.343 .         A 
N169    C182      1.336 .         A 
N170    C178      1.341 .         A 
N170    C184      1.354 .         A 
C171    C173      1.384 .         A 
C171    C180      1.383 .         A 
C173    C174      1.397 .         A 
C174    C182      1.379 .         A 
C176    C178      1.391 .         A 
C176    C188      1.377 .         A 
C184    C186      1.380 .         A 
C186    C188      1.399 .         A 
O654    C189      1.251 .         A 
O2111   C190      1.247 1_655     A 
O192    C217      1.275 .         A 
O193    C216      1.274 .         A 
O194    C217      1.247 .         A 
O195    C216      1.251 .         A 
N196    C207      1.343 .         A 
N196    C209      1.336 .         A 
N197    C205      1.341 .         A 
N197    C211      1.354 .         A 
C198    C200      1.384 .         A 
C198    C207      1.383 .         A 
C200    C201      1.397 .         A 
C201    C209      1.379 .         A 
C203    C205      1.391 .         A 
C203    C215      1.377 .         A 
C211    C213      1.380 .         A 
C213    C215      1.399 .         A 
O219    C244      1.275 .         A 
O220    C243      1.274 .         A 
O221    C730      1.247 .         A 
O222    C2187     1.251 1_455     A 
N223    C234      1.343 .         A 
N223    C236      1.336 .         A 
N224    C232      1.341 .         A 
N224    C238      1.354 .         A 
C225    C227      1.384 .         A 
C225    C234      1.383 .         A 
C227    C228      1.397 .         A 
C228    C236      1.379 .         A 
C230    C232      1.391 .         A 
C230    C242      1.377 .         A 
C238    C240      1.380 .         A 
C240    C242      1.399 .         A 
O708    C243      1.251 .         A 
O2165   C244      1.247 1_655     A 
O246    C271      1.275 .         A 
O247    C270      1.274 .         A 
O248    C271      1.247 .         A 
O249    C270      1.251 .         A 
N250    C261      1.343 .         A 
N250    C263      1.336 .         A 
N251    C259      1.341 .         A 
N251    C265      1.354 .         A 
C252    C254      1.384 .         A 
C252    C261      1.383 .         A 
C254    C255      1.397 .         A 
C255    C263      1.379 .         A 
C257    C259      1.391 .         A 
C257    C269      1.377 .         A 
C265    C267      1.380 .         A 
C267    C269      1.399 .         A 
O273    C298      1.275 .         A 
O274    C297      1.274 .         A 
O275    C784      1.247 .         A 
O276    C2241     1.251 1_455     A 
N277    C288      1.343 .         A 
N277    C290      1.336 .         A 
N278    C286      1.341 .         A 
N278    C292      1.354 .         A 
C279    C281      1.384 .         A 
C279    C288      1.383 .         A 
C281    C282      1.397 .         A 
C282    C290      1.379 .         A 
C284    C286      1.391 .         A 
C284    C296      1.377 .         A 
C292    C294      1.380 .         A 
C294    C296      1.399 .         A 
O762    C297      1.251 .         A 
O2219   C298      1.247 1_655     A 
O300    C325      1.275 .         A 
O301    C324      1.274 .         A 
O302    C325      1.247 .         A 
O303    C324      1.251 .         A 
N304    C315      1.343 .         A 
N304    C317      1.336 .         A 
N305    C313      1.341 .         A 
N305    C319      1.354 .         A 
C306    C308      1.384 .         A 
C306    C315      1.383 .         A 
C308    C309      1.397 .         A 
C309    C317      1.379 .         A 
C311    C313      1.391 .         A 
C311    C323      1.377 .         A 
C319    C321      1.380 .         A 
C321    C323      1.399 .         A 
O327    C352      1.275 .         A 
O328    C351      1.274 .         A 
O329    C838      1.247 .         A 
O330    C2295     1.251 1_455     A 
N331    C342      1.343 .         A 
N331    C344      1.336 .         A 
N332    C340      1.341 .         A 
N332    C346      1.354 .         A 
C333    C335      1.384 .         A 
C333    C342      1.383 .         A 
C335    C336      1.397 .         A 
C336    C344      1.379 .         A 
C338    C340      1.391 .         A 
C338    C350      1.377 .         A 
C346    C348      1.380 .         A 
C348    C350      1.399 .         A 
O816    C351      1.251 .         A 
O2273   C352      1.247 1_655     A 
O354    C379      1.275 .         A 
O355    C378      1.274 .         A 
O356    C379      1.247 .         A 
O357    C378      1.251 .         A 
N358    C369      1.343 .         A 
N358    C371      1.336 .         A 
N359    C367      1.341 .         A 
N359    C373      1.354 .         A 
C360    C362      1.384 .         A 
C360    C369      1.383 .         A 
C362    C363      1.397 .         A 
C363    C371      1.379 .         A 
C365    C367      1.391 .         A 
C365    C377      1.377 .         A 
C373    C375      1.380 .         A 
C375    C377      1.399 .         A 
O381    C406      1.275 .         A 
O382    C405      1.274 .         A 
O383    C892      1.247 .         A 
O384    C2349     1.251 1_455     A 
N385    C396      1.343 .         A 
N385    C398      1.336 .         A 
N386    C394      1.341 .         A 
N386    C400      1.354 .         A 
C387    C389      1.384 .         A 
C387    C396      1.383 .         A 
C389    C390      1.397 .         A 
C390    C398      1.379 .         A 
C392    C394      1.391 .         A 
C392    C404      1.377 .         A 
C400    C402      1.380 .         A 
C402    C404      1.399 .         A 
O870    C405      1.251 .         A 
O2327   C406      1.247 1_655     A 
O408    C433      1.275 .         A 
O409    C432      1.274 .         A 
O410    C433      1.247 .         A 
O411    C432      1.251 .         A 
N412    C423      1.343 .         A 
N412    C425      1.336 .         A 
N413    C421      1.341 .         A 
N413    C427      1.354 .         A 
C414    C416      1.384 .         A 
C414    C423      1.383 .         A 
C416    C417      1.397 .         A 
C417    C425      1.379 .         A 
C419    C421      1.391 .         A 
C419    C431      1.377 .         A 
C427    C429      1.380 .         A 
C429    C431      1.399 .         A 
O435    C460      1.275 .         A 
O436    C459      1.274 .         A 
O437    C946      1.247 .         A 
O438    C2403     1.251 1_455     A 
N439    C450      1.343 .         A 
N439    C452      1.336 .         A 
N440    C448      1.341 .         A 
N440    C454      1.354 .         A 
C441    C443      1.384 .         A 
C441    C450      1.383 .         A 
C443    C444      1.397 .         A 
C444    C452      1.379 .         A 
C446    C448      1.391 .         A 
C446    C458      1.377 .         A 
C454    C456      1.380 .         A 
C456    C458      1.399 .         A 
O924    C459      1.251 .         A 
O2381   C460      1.247 1_655     A 
O462    C487      1.275 .         A 
O463    C486      1.274 .         A 
O464    C487      1.247 .         A 
O465    C486      1.251 .         A 
N466    C477      1.343 .         A 
N466    C479      1.336 .         A 
N467    C475      1.341 .         A 
N467    C481      1.354 .         A 
C468    C470      1.384 .         A 
C468    C477      1.383 .         A 
C470    C471      1.397 .         A 
C471    C479      1.379 .         A 
C473    C475      1.391 .         A 
C473    C485      1.377 .         A 
C481    C483      1.380 .         A 
C483    C485      1.399 .         A 
O489    C514      1.275 .         A 
O490    C513      1.274 .         A 
O491    C1000     1.247 .         A 
N493    C504      1.343 .         A 
N493    C506      1.336 .         A 
N494    C502      1.341 .         A 
N494    C508      1.354 .         A 
C495    C497      1.384 .         A 
C495    C504      1.383 .         A 
C497    C498      1.397 .         A 
C498    C506      1.379 .         A 
C500    C502      1.391 .         A 
C500    C512      1.377 .         A 
C508    C510      1.380 .         A 
C510    C512      1.399 .         A 
O978    C513      1.251 .         A 
O516    C541      1.275 .         A 
O517    C540      1.274 .         A 
O518    C541      1.247 .         A 
O519    C540      1.251 .         A 
N520    C531      1.343 .         A 
N520    C533      1.336 .         A 
N521    C529      1.341 .         A 
N521    C535      1.354 .         A 
C522    C524      1.384 .         A 
C522    C531      1.383 .         A 
C524    C525      1.397 .         A 
C525    C533      1.379 .         A 
C527    C529      1.391 .         A 
C527    C539      1.377 .         A 
C535    C537      1.380 .         A 
C537    C539      1.399 .         A 
O543    C568      1.275 .         A 
O544    C567      1.274 .         A 
O545    C1054     1.247 .         A 
N547    C558      1.343 .         A 
N547    C560      1.336 .         A 
N548    C556      1.341 .         A 
N548    C562      1.354 .         A 
C549    C551      1.384 .         A 
C549    C558      1.383 .         A 
C551    C552      1.397 .         A 
C552    C560      1.379 .         A 
C554    C556      1.391 .         A 
C554    C566      1.377 .         A 
C562    C564      1.380 .         A 
C564    C566      1.399 .         A 
O1032   C567      1.251 .         A 
O570    C595      1.275 .         A 
O571    C594      1.274 .         A 
O572    C595      1.247 .         A 
O573    C594      1.251 .         A 
N574    C585      1.343 .         A 
N574    C587      1.336 .         A 
N575    C583      1.341 .         A 
N575    C589      1.354 .         A 
C576    C578      1.384 .         A 
C576    C585      1.383 .         A 
C578    C579      1.397 .         A 
C579    C587      1.379 .         A 
C581    C583      1.391 .         A 
C581    C593      1.377 .         A 
C589    C591      1.380 .         A 
C591    C593      1.399 .         A 
O597    C622      1.275 .         A 
O598    C621      1.274 .         A 
O599    C1108     1.247 .         A 
N601    C612      1.343 .         A 
N601    C614      1.336 .         A 
N602    C610      1.341 .         A 
N602    C616      1.354 .         A 
C603    C605      1.384 .         A 
C603    C612      1.383 .         A 
C605    C606      1.397 .         A 
C606    C614      1.379 .         A 
C608    C610      1.391 .         A 
C608    C620      1.377 .         A 
C616    C618      1.380 .         A 
C618    C620      1.399 .         A 
O1086   C621      1.251 .         A 
O624    C649      1.275 .         A 
O625    C648      1.274 .         A 
O626    C649      1.247 .         A 
O627    C648      1.251 .         A 
N628    C639      1.343 .         A 
N628    C641      1.336 .         A 
N629    C637      1.341 .         A 
N629    C643      1.354 .         A 
C630    C632      1.384 .         A 
C630    C639      1.383 .         A 
C632    C633      1.397 .         A 
C633    C641      1.379 .         A 
C635    C637      1.391 .         A 
C635    C647      1.377 .         A 
C643    C645      1.380 .         A 
C645    C647      1.399 .         A 
O651    C676      1.275 .         A 
O652    C675      1.274 .         A 
O653    C1162     1.247 .         A 
N655    C666      1.343 .         A 
N655    C668      1.336 .         A 
N656    C664      1.341 .         A 
N656    C670      1.354 .         A 
C657    C659      1.384 .         A 
C657    C666      1.383 .         A 
C659    C660      1.397 .         A 
C660    C668      1.379 .         A 
C662    C664      1.391 .         A 
C662    C674      1.377 .         A 
C670    C672      1.380 .         A 
C672    C674      1.399 .         A 
O1140   C675      1.251 .         A 
O678    C703      1.275 .         A 
O679    C702      1.274 .         A 
O680    C703      1.247 .         A 
O681    C702      1.251 .         A 
N682    C693      1.343 .         A 
N682    C695      1.336 .         A 
N683    C691      1.341 .         A 
N683    C697      1.354 .         A 
C684    C686      1.384 .         A 
C684    C693      1.383 .         A 
C686    C687      1.397 .         A 
C687    C695      1.379 .         A 
C689    C691      1.391 .         A 
C689    C701      1.377 .         A 
C697    C699      1.380 .         A 
C699    C701      1.399 .         A 
O705    C730      1.275 .         A 
O706    C729      1.274 .         A 
O707    C1216     1.247 .         A 
N709    C720      1.343 .         A 
N709    C722      1.336 .         A 
N710    C718      1.341 .         A 
N710    C724      1.354 .         A 
C711    C713      1.384 .         A 
C711    C720      1.383 .         A 
C713    C714      1.397 .         A 
C714    C722      1.379 .         A 
C716    C718      1.391 .         A 
C716    C728      1.377 .         A 
C724    C726      1.380 .         A 
C726    C728      1.399 .         A 
O1194   C729      1.251 .         A 
O732    C757      1.275 .         A 
O733    C756      1.274 .         A 
O734    C757      1.247 .         A 
O735    C756      1.251 .         A 
N736    C747      1.343 .         A 
N736    C749      1.336 .         A 
N737    C745      1.341 .         A 
N737    C751      1.354 .         A 
C738    C740      1.384 .         A 
C738    C747      1.383 .         A 
C740    C741      1.397 .         A 
C741    C749      1.379 .         A 
C743    C745      1.391 .         A 
C743    C755      1.377 .         A 
C751    C753      1.380 .         A 
C753    C755      1.399 .         A 
O759    C784      1.275 .         A 
O760    C783      1.274 .         A 
O761    C1270     1.247 .         A 
N763    C774      1.343 .         A 
N763    C776      1.336 .         A 
N764    C772      1.341 .         A 
N764    C778      1.354 .         A 
C765    C767      1.384 .         A 
C765    C774      1.383 .         A 
C767    C768      1.397 .         A 
C768    C776      1.379 .         A 
C770    C772      1.391 .         A 
C770    C782      1.377 .         A 
C778    C780      1.380 .         A 
C780    C782      1.399 .         A 
O1248   C783      1.251 .         A 
O786    C811      1.275 .         A 
O787    C810      1.274 .         A 
O788    C811      1.247 .         A 
O789    C810      1.251 .         A 
N790    C801      1.343 .         A 
N790    C803      1.336 .         A 
N791    C799      1.341 .         A 
N791    C805      1.354 .         A 
C792    C794      1.384 .         A 
C792    C801      1.383 .         A 
C794    C795      1.397 .         A 
C795    C803      1.379 .         A 
C797    C799      1.391 .         A 
C797    C809      1.377 .         A 
C805    C807      1.380 .         A 
C807    C809      1.399 .         A 
O813    C838      1.275 .         A 
O814    C837      1.274 .         A 
O815    C1324     1.247 .         A 
N817    C828      1.343 .         A 
N817    C830      1.336 .         A 
N818    C826      1.341 .         A 
N818    C832      1.354 .         A 
C819    C821      1.384 .         A 
C819    C828      1.383 .         A 
C821    C822      1.397 .         A 
C822    C830      1.379 .         A 
C824    C826      1.391 .         A 
C824    C836      1.377 .         A 
C832    C834      1.380 .         A 
C834    C836      1.399 .         A 
O1302   C837      1.251 .         A 
O840    C865      1.275 .         A 
O841    C864      1.274 .         A 
O842    C865      1.247 .         A 
O843    C864      1.251 .         A 
N844    C855      1.343 .         A 
N844    C857      1.336 .         A 
N845    C853      1.341 .         A 
N845    C859      1.354 .         A 
C846    C848      1.384 .         A 
C846    C855      1.383 .         A 
C848    C849      1.397 .         A 
C849    C857      1.379 .         A 
C851    C853      1.391 .         A 
C851    C863      1.377 .         A 
C859    C861      1.380 .         A 
C861    C863      1.399 .         A 
O867    C892      1.275 .         A 
O868    C891      1.274 .         A 
O869    C1378     1.247 .         A 
N871    C882      1.343 .         A 
N871    C884      1.336 .         A 
N872    C880      1.341 .         A 
N872    C886      1.354 .         A 
C873    C875      1.384 .         A 
C873    C882      1.383 .         A 
C875    C876      1.397 .         A 
C876    C884      1.379 .         A 
C878    C880      1.391 .         A 
C878    C890      1.377 .         A 
C886    C888      1.380 .         A 
C888    C890      1.399 .         A 
O1356   C891      1.251 .         A 
O894    C919      1.275 .         A 
O895    C918      1.274 .         A 
O896    C919      1.247 .         A 
O897    C918      1.251 .         A 
N898    C909      1.343 .         A 
N898    C911      1.336 .         A 
N899    C907      1.341 .         A 
N899    C913      1.354 .         A 
C900    C902      1.384 .         A 
C900    C909      1.383 .         A 
C902    C903      1.397 .         A 
C903    C911      1.379 .         A 
C905    C907      1.391 .         A 
C905    C917      1.377 .         A 
C913    C915      1.380 .         A 
C915    C917      1.399 .         A 
O921    C946      1.275 .         A 
O922    C945      1.274 .         A 
O923    C1432     1.247 .         A 
N925    C936      1.343 .         A 
N925    C938      1.336 .         A 
N926    C934      1.341 .         A 
N926    C940      1.354 .         A 
C927    C929      1.384 .         A 
C927    C936      1.383 .         A 
C929    C930      1.397 .         A 
C930    C938      1.379 .         A 
C932    C934      1.391 .         A 
C932    C944      1.377 .         A 
C940    C942      1.380 .         A 
C942    C944      1.399 .         A 
O1410   C945      1.251 .         A 
O948    C973      1.275 .         A 
O949    C972      1.274 .         A 
O950    C973      1.247 .         A 
O951    C972      1.251 .         A 
N952    C963      1.343 .         A 
N952    C965      1.336 .         A 
N953    C961      1.341 .         A 
N953    C967      1.354 .         A 
C954    C956      1.384 .         A 
C954    C963      1.383 .         A 
C956    C957      1.397 .         A 
C957    C965      1.379 .         A 
C959    C961      1.391 .         A 
C959    C971      1.377 .         A 
C967    C969      1.380 .         A 
C969    C971      1.399 .         A 
O975    C1000     1.275 .         A 
O976    C999      1.274 .         A 
O977    C1486     1.247 .         A 
N979    C990      1.343 .         A 
N979    C992      1.336 .         A 
N980    C988      1.341 .         A 
N980    C994      1.354 .         A 
C981    C983      1.384 .         A 
C981    C990      1.383 .         A 
C983    C984      1.397 .         A 
C984    C992      1.379 .         A 
C986    C988      1.391 .         A 
C986    C998      1.377 .         A 
C994    C996      1.380 .         A 
C996    C998      1.399 .         A 
O1464   C999      1.251 .         A 
O1002   C1027     1.275 .         A 
O1003   C1026     1.274 .         A 
O1004   C1027     1.247 .         A 
O1005   C1026     1.251 .         A 
N1006   C1017     1.343 .         A 
N1006   C1019     1.336 .         A 
N1007   C1015     1.341 .         A 
N1007   C1021     1.354 .         A 
C1008   C1010     1.384 .         A 
C1008   C1017     1.383 .         A 
C1010   C1011     1.397 .         A 
C1011   C1019     1.379 .         A 
C1013   C1015     1.391 .         A 
C1013   C1025     1.377 .         A 
C1021   C1023     1.380 .         A 
C1023   C1025     1.399 .         A 
O1029   C1054     1.275 .         A 
O1030   C1053     1.274 .         A 
O1031   C1540     1.247 .         A 
N1033   C1044     1.343 .         A 
N1033   C1046     1.336 .         A 
N1034   C1042     1.341 .         A 
N1034   C1048     1.354 .         A 
C1035   C1037     1.384 .         A 
C1035   C1044     1.383 .         A 
C1037   C1038     1.397 .         A 
C1038   C1046     1.379 .         A 
C1040   C1042     1.391 .         A 
C1040   C1052     1.377 .         A 
C1048   C1050     1.380 .         A 
C1050   C1052     1.399 .         A 
O1518   C1053     1.251 .         A 
O1056   C1081     1.275 .         A 
O1057   C1080     1.274 .         A 
O1058   C1081     1.247 .         A 
O1059   C1080     1.251 .         A 
N1060   C1071     1.343 .         A 
N1060   C1073     1.336 .         A 
N1061   C1069     1.341 .         A 
N1061   C1075     1.354 .         A 
C1062   C1064     1.384 .         A 
C1062   C1071     1.383 .         A 
C1064   C1065     1.397 .         A 
C1065   C1073     1.379 .         A 
C1067   C1069     1.391 .         A 
C1067   C1079     1.377 .         A 
C1075   C1077     1.380 .         A 
C1077   C1079     1.399 .         A 
O1083   C1108     1.275 .         A 
O1084   C1107     1.274 .         A 
O1085   C1594     1.247 .         A 
N1087   C1098     1.343 .         A 
N1087   C1100     1.336 .         A 
N1088   C1096     1.341 .         A 
N1088   C1102     1.354 .         A 
C1089   C1091     1.384 .         A 
C1089   C1098     1.383 .         A 
C1091   C1092     1.397 .         A 
C1092   C1100     1.379 .         A 
C1094   C1096     1.391 .         A 
C1094   C1106     1.377 .         A 
C1102   C1104     1.380 .         A 
C1104   C1106     1.399 .         A 
O1572   C1107     1.251 .         A 
O1110   C1135     1.275 .         A 
O1111   C1134     1.274 .         A 
O1112   C1135     1.247 .         A 
O1113   C1134     1.251 .         A 
N1114   C1125     1.343 .         A 
N1114   C1127     1.336 .         A 
N1115   C1123     1.341 .         A 
N1115   C1129     1.354 .         A 
C1116   C1118     1.384 .         A 
C1116   C1125     1.383 .         A 
C1118   C1119     1.397 .         A 
C1119   C1127     1.379 .         A 
C1121   C1123     1.391 .         A 
C1121   C1133     1.377 .         A 
C1129   C1131     1.380 .         A 
C1131   C1133     1.399 .         A 
O1137   C1162     1.275 .         A 
O1138   C1161     1.274 .         A 
O1139   C1648     1.247 .         A 
N1141   C1152     1.343 .         A 
N1141   C1154     1.336 .         A 
N1142   C1150     1.341 .         A 
N1142   C1156     1.354 .         A 
C1143   C1145     1.384 .         A 
C1143   C1152     1.383 .         A 
C1145   C1146     1.397 .         A 
C1146   C1154     1.379 .         A 
C1148   C1150     1.391 .         A 
C1148   C1160     1.377 .         A 
C1156   C1158     1.380 .         A 
C1158   C1160     1.399 .         A 
O1626   C1161     1.251 .         A 
O1164   C1189     1.275 .         A 
O1165   C1188     1.274 .         A 
O1166   C1189     1.247 .         A 
O1167   C1188     1.251 .         A 
N1168   C1179     1.343 .         A 
N1168   C1181     1.336 .         A 
N1169   C1177     1.341 .         A 
N1169   C1183     1.354 .         A 
C1170   C1172     1.384 .         A 
C1170   C1179     1.383 .         A 
C1172   C1173     1.397 .         A 
C1173   C1181     1.379 .         A 
C1175   C1177     1.391 .         A 
C1175   C1187     1.377 .         A 
C1183   C1185     1.380 .         A 
C1185   C1187     1.399 .         A 
O1191   C1216     1.275 .         A 
O1192   C1215     1.274 .         A 
O1193   C1702     1.247 .         A 
N1195   C1206     1.343 .         A 
N1195   C1208     1.336 .         A 
N1196   C1204     1.341 .         A 
N1196   C1210     1.354 .         A 
C1197   C1199     1.384 .         A 
C1197   C1206     1.383 .         A 
C1199   C1200     1.397 .         A 
C1200   C1208     1.379 .         A 
C1202   C1204     1.391 .         A 
C1202   C1214     1.377 .         A 
C1210   C1212     1.380 .         A 
C1212   C1214     1.399 .         A 
O1680   C1215     1.251 .         A 
O1218   C1243     1.275 .         A 
O1219   C1242     1.274 .         A 
O1220   C1243     1.247 .         A 
O1221   C1242     1.251 .         A 
N1222   C1233     1.343 .         A 
N1222   C1235     1.336 .         A 
N1223   C1231     1.341 .         A 
N1223   C1237     1.354 .         A 
C1224   C1226     1.384 .         A 
C1224   C1233     1.383 .         A 
C1226   C1227     1.397 .         A 
C1227   C1235     1.379 .         A 
C1229   C1231     1.391 .         A 
C1229   C1241     1.377 .         A 
C1237   C1239     1.380 .         A 
C1239   C1241     1.399 .         A 
O1245   C1270     1.275 .         A 
O1246   C1269     1.274 .         A 
O1247   C1756     1.247 .         A 
N1249   C1260     1.343 .         A 
N1249   C1262     1.336 .         A 
N1250   C1258     1.341 .         A 
N1250   C1264     1.354 .         A 
C1251   C1253     1.384 .         A 
C1251   C1260     1.383 .         A 
C1253   C1254     1.397 .         A 
C1254   C1262     1.379 .         A 
C1256   C1258     1.391 .         A 
C1256   C1268     1.377 .         A 
C1264   C1266     1.380 .         A 
C1266   C1268     1.399 .         A 
O1734   C1269     1.251 .         A 
O1272   C1297     1.275 .         A 
O1273   C1296     1.274 .         A 
O1274   C1297     1.247 .         A 
O1275   C1296     1.251 .         A 
N1276   C1287     1.343 .         A 
N1276   C1289     1.336 .         A 
N1277   C1285     1.341 .         A 
N1277   C1291     1.354 .         A 
C1278   C1280     1.384 .         A 
C1278   C1287     1.383 .         A 
C1280   C1281     1.397 .         A 
C1281   C1289     1.379 .         A 
C1283   C1285     1.391 .         A 
C1283   C1295     1.377 .         A 
C1291   C1293     1.380 .         A 
C1293   C1295     1.399 .         A 
O1299   C1324     1.275 .         A 
O1300   C1323     1.274 .         A 
O1301   C1810     1.247 .         A 
N1303   C1314     1.343 .         A 
N1303   C1316     1.336 .         A 
N1304   C1312     1.341 .         A 
N1304   C1318     1.354 .         A 
C1305   C1307     1.384 .         A 
C1305   C1314     1.383 .         A 
C1307   C1308     1.397 .         A 
C1308   C1316     1.379 .         A 
C1310   C1312     1.391 .         A 
C1310   C1322     1.377 .         A 
C1318   C1320     1.380 .         A 
C1320   C1322     1.399 .         A 
O1788   C1323     1.251 .         A 
O1326   C1351     1.275 .         A 
O1327   C1350     1.274 .         A 
O1328   C1351     1.247 .         A 
O1329   C1350     1.251 .         A 
N1330   C1341     1.343 .         A 
N1330   C1343     1.336 .         A 
N1331   C1339     1.341 .         A 
N1331   C1345     1.354 .         A 
C1332   C1334     1.384 .         A 
C1332   C1341     1.383 .         A 
C1334   C1335     1.397 .         A 
C1335   C1343     1.379 .         A 
C1337   C1339     1.391 .         A 
C1337   C1349     1.377 .         A 
C1345   C1347     1.380 .         A 
C1347   C1349     1.399 .         A 
O1353   C1378     1.275 .         A 
O1354   C1377     1.274 .         A 
O1355   C1864     1.247 .         A 
N1357   C1368     1.343 .         A 
N1357   C1370     1.336 .         A 
N1358   C1366     1.341 .         A 
N1358   C1372     1.354 .         A 
C1359   C1361     1.384 .         A 
C1359   C1368     1.383 .         A 
C1361   C1362     1.397 .         A 
C1362   C1370     1.379 .         A 
C1364   C1366     1.391 .         A 
C1364   C1376     1.377 .         A 
C1372   C1374     1.380 .         A 
C1374   C1376     1.399 .         A 
O1842   C1377     1.251 .         A 
O1380   C1405     1.275 .         A 
O1381   C1404     1.274 .         A 
O1382   C1405     1.247 .         A 
O1383   C1404     1.251 .         A 
N1384   C1395     1.343 .         A 
N1384   C1397     1.336 .         A 
N1385   C1393     1.341 .         A 
N1385   C1399     1.354 .         A 
C1386   C1388     1.384 .         A 
C1386   C1395     1.383 .         A 
C1388   C1389     1.397 .         A 
C1389   C1397     1.379 .         A 
C1391   C1393     1.391 .         A 
C1391   C1403     1.377 .         A 
C1399   C1401     1.380 .         A 
C1401   C1403     1.399 .         A 
O1407   C1432     1.275 .         A 
O1408   C1431     1.274 .         A 
O1409   C1918     1.247 .         A 
N1411   C1422     1.343 .         A 
N1411   C1424     1.336 .         A 
N1412   C1420     1.341 .         A 
N1412   C1426     1.354 .         A 
C1413   C1415     1.384 .         A 
C1413   C1422     1.383 .         A 
C1415   C1416     1.397 .         A 
C1416   C1424     1.379 .         A 
C1418   C1420     1.391 .         A 
C1418   C1430     1.377 .         A 
C1426   C1428     1.380 .         A 
C1428   C1430     1.399 .         A 
O1896   C1431     1.251 .         A 
O1434   C1459     1.275 .         A 
O1435   C1458     1.274 .         A 
O1436   C1459     1.247 .         A 
O1437   C1458     1.251 .         A 
N1438   C1449     1.343 .         A 
N1438   C1451     1.336 .         A 
N1439   C1447     1.341 .         A 
N1439   C1453     1.354 .         A 
C1440   C1442     1.384 .         A 
C1440   C1449     1.383 .         A 
C1442   C1443     1.397 .         A 
C1443   C1451     1.379 .         A 
C1445   C1447     1.391 .         A 
C1445   C1457     1.377 .         A 
C1453   C1455     1.380 .         A 
C1455   C1457     1.399 .         A 
O1461   C1486     1.275 .         A 
O1462   C1485     1.274 .         A 
O1463   C1972     1.247 .         A 
N1465   C1476     1.343 .         A 
N1465   C1478     1.336 .         A 
N1466   C1474     1.341 .         A 
N1466   C1480     1.354 .         A 
C1467   C1469     1.384 .         A 
C1467   C1476     1.383 .         A 
C1469   C1470     1.397 .         A 
C1470   C1478     1.379 .         A 
C1472   C1474     1.391 .         A 
C1472   C1484     1.377 .         A 
C1480   C1482     1.380 .         A 
C1482   C1484     1.399 .         A 
O1950   C1485     1.251 .         A 
O1488   C1513     1.275 .         A 
O1489   C1512     1.274 .         A 
O1490   C1513     1.247 .         A 
O1491   C1512     1.251 .         A 
N1492   C1503     1.343 .         A 
N1492   C1505     1.336 .         A 
N1493   C1501     1.341 .         A 
N1493   C1507     1.354 .         A 
C1494   C1496     1.384 .         A 
C1494   C1503     1.383 .         A 
C1496   C1497     1.397 .         A 
C1497   C1505     1.379 .         A 
C1499   C1501     1.391 .         A 
C1499   C1511     1.377 .         A 
C1507   C1509     1.380 .         A 
C1509   C1511     1.399 .         A 
O1515   C1540     1.275 .         A 
O1516   C1539     1.274 .         A 
O1517   C2026     1.247 .         A 
N1519   C1530     1.343 .         A 
N1519   C1532     1.336 .         A 
N1520   C1528     1.341 .         A 
N1520   C1534     1.354 .         A 
C1521   C1523     1.384 .         A 
C1521   C1530     1.383 .         A 
C1523   C1524     1.397 .         A 
C1524   C1532     1.379 .         A 
C1526   C1528     1.391 .         A 
C1526   C1538     1.377 .         A 
C1534   C1536     1.380 .         A 
C1536   C1538     1.399 .         A 
O2004   C1539     1.251 .         A 
O1542   C1567     1.275 .         A 
O1543   C1566     1.274 .         A 
O1544   C1567     1.247 .         A 
O1545   C1566     1.251 .         A 
N1546   C1557     1.343 .         A 
N1546   C1559     1.336 .         A 
N1547   C1555     1.341 .         A 
N1547   C1561     1.354 .         A 
C1548   C1550     1.384 .         A 
C1548   C1557     1.383 .         A 
C1550   C1551     1.397 .         A 
C1551   C1559     1.379 .         A 
C1553   C1555     1.391 .         A 
C1553   C1565     1.377 .         A 
C1561   C1563     1.380 .         A 
C1563   C1565     1.399 .         A 
O1569   C1594     1.275 .         A 
O1570   C1593     1.274 .         A 
O1571   C2080     1.247 .         A 
N1573   C1584     1.343 .         A 
N1573   C1586     1.336 .         A 
N1574   C1582     1.341 .         A 
N1574   C1588     1.354 .         A 
C1575   C1577     1.384 .         A 
C1575   C1584     1.383 .         A 
C1577   C1578     1.397 .         A 
C1578   C1586     1.379 .         A 
C1580   C1582     1.391 .         A 
C1580   C1592     1.377 .         A 
C1588   C1590     1.380 .         A 
C1590   C1592     1.399 .         A 
O2058   C1593     1.251 .         A 
O1596   C1621     1.275 .         A 
O1597   C1620     1.274 .         A 
O1598   C1621     1.247 .         A 
O1599   C1620     1.251 .         A 
N1600   C1611     1.343 .         A 
N1600   C1613     1.336 .         A 
N1601   C1609     1.341 .         A 
N1601   C1615     1.354 .         A 
C1602   C1604     1.384 .         A 
C1602   C1611     1.383 .         A 
C1604   C1605     1.397 .         A 
C1605   C1613     1.379 .         A 
C1607   C1609     1.391 .         A 
C1607   C1619     1.377 .         A 
C1615   C1617     1.380 .         A 
C1617   C1619     1.399 .         A 
O1623   C1648     1.275 .         A 
O1624   C1647     1.274 .         A 
O1625   C2134     1.247 .         A 
N1627   C1638     1.343 .         A 
N1627   C1640     1.336 .         A 
N1628   C1636     1.341 .         A 
N1628   C1642     1.354 .         A 
C1629   C1631     1.384 .         A 
C1629   C1638     1.383 .         A 
C1631   C1632     1.397 .         A 
C1632   C1640     1.379 .         A 
C1634   C1636     1.391 .         A 
C1634   C1646     1.377 .         A 
C1642   C1644     1.380 .         A 
C1644   C1646     1.399 .         A 
O2112   C1647     1.251 .         A 
O1650   C1675     1.275 .         A 
O1651   C1674     1.274 .         A 
O1652   C1675     1.247 .         A 
O1653   C1674     1.251 .         A 
N1654   C1665     1.343 .         A 
N1654   C1667     1.336 .         A 
N1655   C1663     1.341 .         A 
N1655   C1669     1.354 .         A 
C1656   C1658     1.384 .         A 
C1656   C1665     1.383 .         A 
C1658   C1659     1.397 .         A 
C1659   C1667     1.379 .         A 
C1661   C1663     1.391 .         A 
C1661   C1673     1.377 .         A 
C1669   C1671     1.380 .         A 
C1671   C1673     1.399 .         A 
O1677   C1702     1.275 .         A 
O1678   C1701     1.274 .         A 
O1679   C2188     1.247 .         A 
N1681   C1692     1.343 .         A 
N1681   C1694     1.336 .         A 
N1682   C1690     1.341 .         A 
N1682   C1696     1.354 .         A 
C1683   C1685     1.384 .         A 
C1683   C1692     1.383 .         A 
C1685   C1686     1.397 .         A 
C1686   C1694     1.379 .         A 
C1688   C1690     1.391 .         A 
C1688   C1700     1.377 .         A 
C1696   C1698     1.380 .         A 
C1698   C1700     1.399 .         A 
O2166   C1701     1.251 .         A 
O1704   C1729     1.275 .         A 
O1705   C1728     1.274 .         A 
O1706   C1729     1.247 .         A 
O1707   C1728     1.251 .         A 
N1708   C1719     1.343 .         A 
N1708   C1721     1.336 .         A 
N1709   C1717     1.341 .         A 
N1709   C1723     1.354 .         A 
C1710   C1712     1.384 .         A 
C1710   C1719     1.383 .         A 
C1712   C1713     1.397 .         A 
C1713   C1721     1.379 .         A 
C1715   C1717     1.391 .         A 
C1715   C1727     1.377 .         A 
C1723   C1725     1.380 .         A 
C1725   C1727     1.399 .         A 
O1731   C1756     1.275 .         A 
O1732   C1755     1.274 .         A 
O1733   C2242     1.247 .         A 
N1735   C1746     1.343 .         A 
N1735   C1748     1.336 .         A 
N1736   C1744     1.341 .         A 
N1736   C1750     1.354 .         A 
C1737   C1739     1.384 .         A 
C1737   C1746     1.383 .         A 
C1739   C1740     1.397 .         A 
C1740   C1748     1.379 .         A 
C1742   C1744     1.391 .         A 
C1742   C1754     1.377 .         A 
C1750   C1752     1.380 .         A 
C1752   C1754     1.399 .         A 
O2220   C1755     1.251 .         A 
O1758   C1783     1.275 .         A 
O1759   C1782     1.274 .         A 
O1760   C1783     1.247 .         A 
O1761   C1782     1.251 .         A 
N1762   C1773     1.343 .         A 
N1762   C1775     1.336 .         A 
N1763   C1771     1.341 .         A 
N1763   C1777     1.354 .         A 
C1764   C1766     1.384 .         A 
C1764   C1773     1.383 .         A 
C1766   C1767     1.397 .         A 
C1767   C1775     1.379 .         A 
C1769   C1771     1.391 .         A 
C1769   C1781     1.377 .         A 
C1777   C1779     1.380 .         A 
C1779   C1781     1.399 .         A 
O1785   C1810     1.275 .         A 
O1786   C1809     1.274 .         A 
O1787   C2296     1.247 .         A 
N1789   C1800     1.343 .         A 
N1789   C1802     1.336 .         A 
N1790   C1798     1.341 .         A 
N1790   C1804     1.354 .         A 
C1791   C1793     1.384 .         A 
C1791   C1800     1.383 .         A 
C1793   C1794     1.397 .         A 
C1794   C1802     1.379 .         A 
C1796   C1798     1.391 .         A 
C1796   C1808     1.377 .         A 
C1804   C1806     1.380 .         A 
C1806   C1808     1.399 .         A 
O2274   C1809     1.251 .         A 
O1812   C1837     1.275 .         A 
O1813   C1836     1.274 .         A 
O1814   C1837     1.247 .         A 
O1815   C1836     1.251 .         A 
N1816   C1827     1.343 .         A 
N1816   C1829     1.336 .         A 
N1817   C1825     1.341 .         A 
N1817   C1831     1.354 .         A 
C1818   C1820     1.384 .         A 
C1818   C1827     1.383 .         A 
C1820   C1821     1.397 .         A 
C1821   C1829     1.379 .         A 
C1823   C1825     1.391 .         A 
C1823   C1835     1.377 .         A 
C1831   C1833     1.380 .         A 
C1833   C1835     1.399 .         A 
O1839   C1864     1.275 .         A 
O1840   C1863     1.274 .         A 
O1841   C2350     1.247 .         A 
N1843   C1854     1.343 .         A 
N1843   C1856     1.336 .         A 
N1844   C1852     1.341 .         A 
N1844   C1858     1.354 .         A 
C1845   C1847     1.384 .         A 
C1845   C1854     1.383 .         A 
C1847   C1848     1.397 .         A 
C1848   C1856     1.379 .         A 
C1850   C1852     1.391 .         A 
C1850   C1862     1.377 .         A 
C1858   C1860     1.380 .         A 
C1860   C1862     1.399 .         A 
O2328   C1863     1.251 .         A 
O1866   C1891     1.275 .         A 
O1867   C1890     1.274 .         A 
O1868   C1891     1.247 .         A 
O1869   C1890     1.251 .         A 
N1870   C1881     1.343 .         A 
N1870   C1883     1.336 .         A 
N1871   C1879     1.341 .         A 
N1871   C1885     1.354 .         A 
C1872   C1874     1.384 .         A 
C1872   C1881     1.383 .         A 
C1874   C1875     1.397 .         A 
C1875   C1883     1.379 .         A 
C1877   C1879     1.391 .         A 
C1877   C1889     1.377 .         A 
C1885   C1887     1.380 .         A 
C1887   C1889     1.399 .         A 
O1893   C1918     1.275 .         A 
O1894   C1917     1.274 .         A 
O1895   C2404     1.247 .         A 
N1897   C1908     1.343 .         A 
N1897   C1910     1.336 .         A 
N1898   C1906     1.341 .         A 
N1898   C1912     1.354 .         A 
C1899   C1901     1.384 .         A 
C1899   C1908     1.383 .         A 
C1901   C1902     1.397 .         A 
C1902   C1910     1.379 .         A 
C1904   C1906     1.391 .         A 
C1904   C1916     1.377 .         A 
C1912   C1914     1.380 .         A 
C1914   C1916     1.399 .         A 
O2382   C1917     1.251 .         A 
O1920   C1945     1.275 .         A 
O1921   C1944     1.274 .         A 
O1922   C1945     1.247 .         A 
O1923   C1944     1.251 .         A 
N1924   C1935     1.343 .         A 
N1924   C1937     1.336 .         A 
N1925   C1933     1.341 .         A 
N1925   C1939     1.354 .         A 
C1926   C1928     1.384 .         A 
C1926   C1935     1.383 .         A 
C1928   C1929     1.397 .         A 
C1929   C1937     1.379 .         A 
C1931   C1933     1.391 .         A 
C1931   C1943     1.377 .         A 
C1939   C1941     1.380 .         A 
C1941   C1943     1.399 .         A 
O1947   C1972     1.275 .         A 
O1948   C1971     1.274 .         A 
N1951   C1962     1.343 .         A 
N1951   C1964     1.336 .         A 
N1952   C1960     1.341 .         A 
N1952   C1966     1.354 .         A 
C1953   C1955     1.384 .         A 
C1953   C1962     1.383 .         A 
C1955   C1956     1.397 .         A 
C1956   C1964     1.379 .         A 
C1958   C1960     1.391 .         A 
C1958   C1970     1.377 .         A 
C1966   C1968     1.380 .         A 
C1968   C1970     1.399 .         A 
O1974   C1999     1.275 .         A 
O1975   C1998     1.274 .         A 
O1976   C1999     1.247 .         A 
O1977   C1998     1.251 .         A 
N1978   C1989     1.343 .         A 
N1978   C1991     1.336 .         A 
N1979   C1987     1.341 .         A 
N1979   C1993     1.354 .         A 
C1980   C1982     1.384 .         A 
C1980   C1989     1.383 .         A 
C1982   C1983     1.397 .         A 
C1983   C1991     1.379 .         A 
C1985   C1987     1.391 .         A 
C1985   C1997     1.377 .         A 
C1993   C1995     1.380 .         A 
C1995   C1997     1.399 .         A 
O2001   C2026     1.275 .         A 
O2002   C2025     1.274 .         A 
N2005   C2016     1.343 .         A 
N2005   C2018     1.336 .         A 
N2006   C2014     1.341 .         A 
N2006   C2020     1.354 .         A 
C2007   C2009     1.384 .         A 
C2007   C2016     1.383 .         A 
C2009   C2010     1.397 .         A 
C2010   C2018     1.379 .         A 
C2012   C2014     1.391 .         A 
C2012   C2024     1.377 .         A 
C2020   C2022     1.380 .         A 
C2022   C2024     1.399 .         A 
O2028   C2053     1.275 .         A 
O2029   C2052     1.274 .         A 
O2030   C2053     1.247 .         A 
O2031   C2052     1.251 .         A 
N2032   C2043     1.343 .         A 
N2032   C2045     1.336 .         A 
N2033   C2041     1.341 .         A 
N2033   C2047     1.354 .         A 
C2034   C2036     1.384 .         A 
C2034   C2043     1.383 .         A 
C2036   C2037     1.397 .         A 
C2037   C2045     1.379 .         A 
C2039   C2041     1.391 .         A 
C2039   C2051     1.377 .         A 
C2047   C2049     1.380 .         A 
C2049   C2051     1.399 .         A 
O2055   C2080     1.275 .         A 
O2056   C2079     1.274 .         A 
N2059   C2070     1.343 .         A 
N2059   C2072     1.336 .         A 
N2060   C2068     1.341 .         A 
N2060   C2074     1.354 .         A 
C2061   C2063     1.384 .         A 
C2061   C2070     1.383 .         A 
C2063   C2064     1.397 .         A 
C2064   C2072     1.379 .         A 
C2066   C2068     1.391 .         A 
C2066   C2078     1.377 .         A 
C2074   C2076     1.380 .         A 
C2076   C2078     1.399 .         A 
O2082   C2107     1.275 .         A 
O2083   C2106     1.274 .         A 
O2084   C2107     1.247 .         A 
O2085   C2106     1.251 .         A 
N2086   C2097     1.343 .         A 
N2086   C2099     1.336 .         A 
N2087   C2095     1.341 .         A 
N2087   C2101     1.354 .         A 
C2088   C2090     1.384 .         A 
C2088   C2097     1.383 .         A 
C2090   C2091     1.397 .         A 
C2091   C2099     1.379 .         A 
C2093   C2095     1.391 .         A 
C2093   C2105     1.377 .         A 
C2101   C2103     1.380 .         A 
C2103   C2105     1.399 .         A 
O2109   C2134     1.275 .         A 
O2110   C2133     1.274 .         A 
N2113   C2124     1.343 .         A 
N2113   C2126     1.336 .         A 
N2114   C2122     1.341 .         A 
N2114   C2128     1.354 .         A 
C2115   C2117     1.384 .         A 
C2115   C2124     1.383 .         A 
C2117   C2118     1.397 .         A 
C2118   C2126     1.379 .         A 
C2120   C2122     1.391 .         A 
C2120   C2132     1.377 .         A 
C2128   C2130     1.380 .         A 
C2130   C2132     1.399 .         A 
O2136   C2161     1.275 .         A 
O2137   C2160     1.274 .         A 
O2138   C2161     1.247 .         A 
O2139   C2160     1.251 .         A 
N2140   C2151     1.343 .         A 
N2140   C2153     1.336 .         A 
N2141   C2149     1.341 .         A 
N2141   C2155     1.354 .         A 
C2142   C2144     1.384 .         A 
C2142   C2151     1.383 .         A 
C2144   C2145     1.397 .         A 
C2145   C2153     1.379 .         A 
C2147   C2149     1.391 .         A 
C2147   C2159     1.377 .         A 
C2155   C2157     1.380 .         A 
C2157   C2159     1.399 .         A 
O2163   C2188     1.275 .         A 
O2164   C2187     1.274 .         A 
N2167   C2178     1.343 .         A 
N2167   C2180     1.336 .         A 
N2168   C2176     1.341 .         A 
N2168   C2182     1.354 .         A 
C2169   C2171     1.384 .         A 
C2169   C2178     1.383 .         A 
C2171   C2172     1.397 .         A 
C2172   C2180     1.379 .         A 
C2174   C2176     1.391 .         A 
C2174   C2186     1.377 .         A 
C2182   C2184     1.380 .         A 
C2184   C2186     1.399 .         A 
O2190   C2215     1.275 .         A 
O2191   C2214     1.274 .         A 
O2192   C2215     1.247 .         A 
O2193   C2214     1.251 .         A 
N2194   C2205     1.343 .         A 
N2194   C2207     1.336 .         A 
N2195   C2203     1.341 .         A 
N2195   C2209     1.354 .         A 
C2196   C2198     1.384 .         A 
C2196   C2205     1.383 .         A 
C2198   C2199     1.397 .         A 
C2199   C2207     1.379 .         A 
C2201   C2203     1.391 .         A 
C2201   C2213     1.377 .         A 
C2209   C2211     1.380 .         A 
C2211   C2213     1.399 .         A 
O2217   C2242     1.275 .         A 
O2218   C2241     1.274 .         A 
N2221   C2232     1.343 .         A 
N2221   C2234     1.336 .         A 
N2222   C2230     1.341 .         A 
N2222   C2236     1.354 .         A 
C2223   C2225     1.384 .         A 
C2223   C2232     1.383 .         A 
C2225   C2226     1.397 .         A 
C2226   C2234     1.379 .         A 
C2228   C2230     1.391 .         A 
C2228   C2240     1.377 .         A 
C2236   C2238     1.380 .         A 
C2238   C2240     1.399 .         A 
O2244   C2269     1.275 .         A 
O2245   C2268     1.274 .         A 
O2246   C2269     1.247 .         A 
O2247   C2268     1.251 .         A 
N2248   C2259     1.343 .         A 
N2248   C2261     1.336 .         A 
N2249   C2257     1.341 .         A 
N2249   C2263     1.354 .         A 
C2250   C2252     1.384 .         A 
C2250   C2259     1.383 .         A 
C2252   C2253     1.397 .         A 
C2253   C2261     1.379 .         A 
C2255   C2257     1.391 .         A 
C2255   C2267     1.377 .         A 
C2263   C2265     1.380 .         A 
C2265   C2267     1.399 .         A 
O2271   C2296     1.275 .         A 
O2272   C2295     1.274 .         A 
N2275   C2286     1.343 .         A 
N2275   C2288     1.336 .         A 
N2276   C2284     1.341 .         A 
N2276   C2290     1.354 .         A 
C2277   C2279     1.384 .         A 
C2277   C2286     1.383 .         A 
C2279   C2280     1.397 .         A 
C2280   C2288     1.379 .         A 
C2282   C2284     1.391 .         A 
C2282   C2294     1.377 .         A 
C2290   C2292     1.380 .         A 
C2292   C2294     1.399 .         A 
O2298   C2323     1.275 .         A 
O2299   C2322     1.274 .         A 
O2300   C2323     1.247 .         A 
O2301   C2322     1.251 .         A 
N2302   C2313     1.343 .         A 
N2302   C2315     1.336 .         A 
N2303   C2311     1.341 .         A 
N2303   C2317     1.354 .         A 
C2304   C2306     1.384 .         A 
C2304   C2313     1.383 .         A 
C2306   C2307     1.397 .         A 
C2307   C2315     1.379 .         A 
C2309   C2311     1.391 .         A 
C2309   C2321     1.377 .         A 
C2317   C2319     1.380 .         A 
C2319   C2321     1.399 .         A 
O2325   C2350     1.275 .         A 
O2326   C2349     1.274 .         A 
N2329   C2340     1.343 .         A 
N2329   C2342     1.336 .         A 
N2330   C2338     1.341 .         A 
N2330   C2344     1.354 .         A 
C2331   C2333     1.384 .         A 
C2331   C2340     1.383 .         A 
C2333   C2334     1.397 .         A 
C2334   C2342     1.379 .         A 
C2336   C2338     1.391 .         A 
C2336   C2348     1.377 .         A 
C2344   C2346     1.380 .         A 
C2346   C2348     1.399 .         A 
O2352   C2377     1.275 .         A 
O2353   C2376     1.274 .         A 
O2354   C2377     1.247 .         A 
O2355   C2376     1.251 .         A 
N2356   C2367     1.343 .         A 
N2356   C2369     1.336 .         A 
N2357   C2365     1.341 .         A 
N2357   C2371     1.354 .         A 
C2358   C2360     1.384 .         A 
C2358   C2367     1.383 .         A 
C2360   C2361     1.397 .         A 
C2361   C2369     1.379 .         A 
C2363   C2365     1.391 .         A 
C2363   C2375     1.377 .         A 
C2371   C2373     1.380 .         A 
C2373   C2375     1.399 .         A 
O2379   C2404     1.275 .         A 
O2380   C2403     1.274 .         A 
N2383   C2394     1.343 .         A 
N2383   C2396     1.336 .         A 
N2384   C2392     1.341 .         A 
N2384   C2398     1.354 .         A 
C2385   C2387     1.384 .         A 
C2385   C2394     1.383 .         A 
C2387   C2388     1.397 .         A 
C2388   C2396     1.379 .         A 
C2390   C2392     1.391 .         A 
C2390   C2402     1.377 .         A 
C2398   C2400     1.380 .         A 
C2400   C2402     1.399 .         A 
O2406   C2431     1.275 .         A 
O2407   C2430     1.274 .         A 
O2408   C2431     1.247 .         A 
O2409   C2430     1.251 .         A 
N2410   C2421     1.343 .         A 
N2410   C2423     1.336 .         A 
N2411   C2419     1.341 .         A 
N2411   C2425     1.354 .         A 
C2412   C2414     1.384 .         A 
C2412   C2421     1.383 .         A 
C2414   C2415     1.397 .         A 
C2415   C2423     1.379 .         A 
C2417   C2419     1.391 .         A 
C2417   C2429     1.377 .         A 
C2425   C2427     1.380 .         A 
C2427   C2429     1.399 .         A 
