data_Pn_Ni-PyC-NH2_with_Xe_PM
_symmetry_space_group_name_H-M    'P1'
_cell_length_a    31.854000
_cell_length_b    35.635800
_cell_length_c    28.367200
_cell_angle_alpha    90.000000
_cell_angle_beta    89.972000
_cell_angle_gamma    90.000000
_symmetry_Int_Tables_number 1

loop_
_symmetry_equiv_pos_as_xyz
'x,y,z'

loop_
_atom_site_label
_atom_site_type_symbol
_atom_site_fract_x
_atom_site_fract_y
_atom_site_fract_z
Ni1    Ni    0.166233    0.082833    0.011475
O1    O    0.010000    0.290000    0.192250
O2    O    0.043333    0.286667    0.126100
C1    C    0.069667    0.006667    0.233950
C2    C    0.101000    0.012667    0.156925
C3    C    0.126667    0.040000    0.176150
H1    H    0.150000    0.056667    0.153475
H2    H    0.132667    0.013333    0.094300
N1    N    0.126667    0.050000    0.221900
N2    N    0.107000    0.002333    0.112275
C4    C    0.070000    0.329333    0.186700
H3    H    0.090000    0.314000    0.099925
C5    C    0.040000    0.300000    0.168100
C6    C    0.099000    0.033000    0.000800
H4    H    0.100000    0.040667    0.037775
H5    H    0.046667    0.326667    0.009025
O3    O    0.185333    0.113967    0.210475
O4    O    0.218800    0.124633    0.026025
C7    C    0.229600    0.173967    0.162775
C8    C    0.273867    0.178700    0.231400
C9    C    0.298500    0.205133    0.205975
H6    H    0.326933    0.216600    0.221600
H7    H    0.306867    0.187867    0.042025
N3    N    0.287533    0.217567    0.163425
N4    N    0.283800    0.171800    0.026225
C10    C    0.239000    0.161600    0.208200
H8    H    0.264300    0.153800    0.044400
C11    C    0.213733    0.133067    0.232125
C12    C    0.253733    0.202167    0.141525
H9    H    0.246200    0.213333    0.106900
H10    H    0.202433    0.163367    0.143825
Ni2    Ni    0.332900    0.250500    0.136475
O5    O    0.176667    0.043333    0.067250
O6    O    0.210000    0.046667    0.001100
C13    C    0.236333    0.326667    0.108950
C14    C    0.267667    0.320667    0.031925
C15    C    0.293333    0.293333    0.051150
H11    H    0.316667    0.276667    0.028475
H12    H    0.299333    0.320000    0.219300
N5    N    0.293333    0.283333    0.096900
N6    N    0.273667    0.331000    0.237275
C16    C    0.236667    0.004000    0.061700
H13    H    0.256667    0.019333    0.224925
C17    C    0.206667    0.033333    0.043100
C18    C    0.265667    0.300333    0.125800
H14    H    0.266667    0.292667    0.162775
H15    H    0.213333    0.006667    0.134025
O7    O    0.018667    0.219367    0.085475
O8    O    0.052133    0.208700    0.151025
C19    C    0.062933    0.159367    0.037775
C20    C    0.107200    0.154633    0.106400
C21    C    0.131833    0.128200    0.080975
H16    H    0.160267    0.116733    0.096600
H17    H    0.140200    0.145467    0.167025
N7    N    0.120867    0.115767    0.038425
N8    N    0.117133    0.161533    0.151225
C22    C    0.072333    0.171733    0.083200
H18    H    0.097633    0.179533    0.169400
C23    C    0.047067    0.200267    0.107125
C24    C    0.087067    0.131167    0.016525
H19    H    0.079533    0.120000    0.231900
H20    H    0.035767    0.169967    0.018825
Ni3    Ni    0.166233    0.082833    0.261475
O9    O    0.010000    0.290000    0.442250
O10    O    0.043333    0.286667    0.376100
C25    C    0.069667    0.006667    0.483950
C26    C    0.101000    0.012667    0.406925
C27    C    0.126667    0.040000    0.426150
H21    H    0.150000    0.056667    0.403475
H22    H    0.132667    0.013333    0.344300
N9    N    0.126667    0.050000    0.471900
N10    N    0.107000    0.002333    0.362275
C28    C    0.070000    0.329333    0.436700
H23    H    0.090000    0.314000    0.349925
C29    C    0.040000    0.300000    0.418100
C30    C    0.099000    0.033000    0.250800
H24    H    0.100000    0.040667    0.287775
H25    H    0.046667    0.326667    0.259025
O11    O    0.185333    0.113967    0.460475
O12    O    0.218800    0.124633    0.276025
C31    C    0.229600    0.173967    0.412775
C32    C    0.273867    0.178700    0.481400
C33    C    0.298500    0.205133    0.455975
H26    H    0.326933    0.216600    0.471600
H27    H    0.306867    0.187867    0.292025
N11    N    0.287533    0.217567    0.413425
N12    N    0.283800    0.171800    0.276225
C34    C    0.239000    0.161600    0.458200
H28    H    0.264300    0.153800    0.294400
C35    C    0.213733    0.133067    0.482125
C36    C    0.253733    0.202167    0.391525
H29    H    0.246200    0.213333    0.356900
H30    H    0.202433    0.163367    0.393825
Ni4    Ni    0.332900    0.250500    0.386475
O13    O    0.176667    0.043333    0.317250
O14    O    0.210000    0.046667    0.251100
C37    C    0.236333    0.326667    0.358950
C38    C    0.267667    0.320667    0.281925
C39    C    0.293333    0.293333    0.301150
H31    H    0.316667    0.276667    0.278475
H32    H    0.299333    0.320000    0.469300
N13    N    0.293333    0.283333    0.346900
N14    N    0.273667    0.331000    0.487275
C40    C    0.236667    0.004000    0.311700
H33    H    0.256667    0.019333    0.474925
C41    C    0.206667    0.033333    0.293100
C42    C    0.265667    0.300333    0.375800
H34    H    0.266667    0.292667    0.412775
H35    H    0.213333    0.006667    0.384025
O15    O    0.018667    0.219367    0.335475
O16    O    0.052133    0.208700    0.401025
C43    C    0.062933    0.159367    0.287775
C44    C    0.107200    0.154633    0.356400
C45    C    0.131833    0.128200    0.330975
H36    H    0.160267    0.116733    0.346600
H37    H    0.140200    0.145467    0.417025
N15    N    0.120867    0.115767    0.288425
N16    N    0.117133    0.161533    0.401225
C46    C    0.072333    0.171733    0.333200
H38    H    0.097633    0.179533    0.419400
C47    C    0.047067    0.200267    0.357125
C48    C    0.087067    0.131167    0.266525
H39    H    0.079533    0.120000    0.481900
H40    H    0.035767    0.169967    0.268825
Ni5    Ni    0.166233    0.082833    0.511475
O17    O    0.010000    0.290000    0.692250
O18    O    0.043333    0.286667    0.626100
C49    C    0.069667    0.006667    0.733950
C50    C    0.101000    0.012667    0.656925
C51    C    0.126667    0.040000    0.676150
H41    H    0.150000    0.056667    0.653475
H42    H    0.132667    0.013333    0.594300
N17    N    0.126667    0.050000    0.721900
N18    N    0.107000    0.002333    0.612275
C52    C    0.070000    0.329333    0.686700
H43    H    0.090000    0.314000    0.599925
C53    C    0.040000    0.300000    0.668100
C54    C    0.099000    0.033000    0.500800
H44    H    0.100000    0.040667    0.537775
H45    H    0.046667    0.326667    0.509025
O19    O    0.185333    0.113967    0.710475
O20    O    0.218800    0.124633    0.526025
C55    C    0.229600    0.173967    0.662775
C56    C    0.273867    0.178700    0.731400
C57    C    0.298500    0.205133    0.705975
H46    H    0.326933    0.216600    0.721600
H47    H    0.306867    0.187867    0.542025
N19    N    0.287533    0.217567    0.663425
N20    N    0.283800    0.171800    0.526225
C58    C    0.239000    0.161600    0.708200
H48    H    0.264300    0.153800    0.544400
C59    C    0.213733    0.133067    0.732125
C60    C    0.253733    0.202167    0.641525
H49    H    0.246200    0.213333    0.606900
H50    H    0.202433    0.163367    0.643825
Ni6    Ni    0.332900    0.250500    0.636475
O21    O    0.176667    0.043333    0.567250
O22    O    0.210000    0.046667    0.501100
C61    C    0.236333    0.326667    0.608950
C62    C    0.267667    0.320667    0.531925
C63    C    0.293333    0.293333    0.551150
H51    H    0.316667    0.276667    0.528475
H52    H    0.299333    0.320000    0.719300
N21    N    0.293333    0.283333    0.596900
N22    N    0.273667    0.331000    0.737275
C64    C    0.236667    0.004000    0.561700
H53    H    0.256667    0.019333    0.724925
C65    C    0.206667    0.033333    0.543100
C66    C    0.265667    0.300333    0.625800
H54    H    0.266667    0.292667    0.662775
H55    H    0.213333    0.006667    0.634025
O23    O    0.018667    0.219367    0.585475
O24    O    0.052133    0.208700    0.651025
C67    C    0.062933    0.159367    0.537775
C68    C    0.107200    0.154633    0.606400
C69    C    0.131833    0.128200    0.580975
H56    H    0.160267    0.116733    0.596600
H57    H    0.140200    0.145467    0.667025
N23    N    0.120867    0.115767    0.538425
N24    N    0.117133    0.161533    0.651225
C70    C    0.072333    0.171733    0.583200
H58    H    0.097633    0.179533    0.669400
C71    C    0.047067    0.200267    0.607125
C72    C    0.087067    0.131167    0.516525
H59    H    0.079533    0.120000    0.731900
H60    H    0.035767    0.169967    0.518825
Ni7    Ni    0.166233    0.082833    0.761475
O25    O    0.010000    0.290000    0.942250
O26    O    0.043333    0.286667    0.876100
C73    C    0.069667    0.006667    0.983950
C74    C    0.101000    0.012667    0.906925
C75    C    0.126667    0.040000    0.926150
H61    H    0.150000    0.056667    0.903475
H62    H    0.132667    0.013333    0.844300
N25    N    0.126667    0.050000    0.971900
N26    N    0.107000    0.002333    0.862275
C76    C    0.070000    0.329333    0.936700
H63    H    0.090000    0.314000    0.849925
C77    C    0.040000    0.300000    0.918100
C78    C    0.099000    0.033000    0.750800
H64    H    0.100000    0.040667    0.787775
H65    H    0.046667    0.326667    0.759025
O27    O    0.185333    0.113967    0.960475
O28    O    0.218800    0.124633    0.776025
C79    C    0.229600    0.173967    0.912775
C80    C    0.273867    0.178700    0.981400
C81    C    0.298500    0.205133    0.955975
H66    H    0.326933    0.216600    0.971600
H67    H    0.306867    0.187867    0.792025
N27    N    0.287533    0.217567    0.913425
N28    N    0.283800    0.171800    0.776225
C82    C    0.239000    0.161600    0.958200
H68    H    0.264300    0.153800    0.794400
C83    C    0.213733    0.133067    0.982125
C84    C    0.253733    0.202167    0.891525
H69    H    0.246200    0.213333    0.856900
H70    H    0.202433    0.163367    0.893825
Ni8    Ni    0.332900    0.250500    0.886475
O29    O    0.176667    0.043333    0.817250
O30    O    0.210000    0.046667    0.751100
C85    C    0.236333    0.326667    0.858950
C86    C    0.267667    0.320667    0.781925
C87    C    0.293333    0.293333    0.801150
H71    H    0.316667    0.276667    0.778475
H72    H    0.299333    0.320000    0.969300
N29    N    0.293333    0.283333    0.846900
N30    N    0.273667    0.331000    0.987275
C88    C    0.236667    0.004000    0.811700
H73    H    0.256667    0.019333    0.974925
C89    C    0.206667    0.033333    0.793100
C90    C    0.265667    0.300333    0.875800
H74    H    0.266667    0.292667    0.912775
H75    H    0.213333    0.006667    0.884025
O31    O    0.018667    0.219367    0.835475
O32    O    0.052133    0.208700    0.901025
C91    C    0.062933    0.159367    0.787775
C92    C    0.107200    0.154633    0.856400
C93    C    0.131833    0.128200    0.830975
H76    H    0.160267    0.116733    0.846600
H77    H    0.140200    0.145467    0.917025
N31    N    0.120867    0.115767    0.788425
N32    N    0.117133    0.161533    0.901225
C94    C    0.072333    0.171733    0.833200
H78    H    0.097633    0.179533    0.919400
C95    C    0.047067    0.200267    0.857125
C96    C    0.087067    0.131167    0.766525
H79    H    0.079533    0.120000    0.981900
H80    H    0.035767    0.169967    0.768825
Ni9    Ni    0.166233    0.416167    0.011475
O33    O    0.010000    0.623333    0.192250
O34    O    0.043333    0.620000    0.126100
C97    C    0.069667    0.340000    0.233950
C98    C    0.101000    0.346000    0.156925
C99    C    0.126667    0.373333    0.176150
H81    H    0.150000    0.390000    0.153475
H82    H    0.132667    0.346667    0.094300
N33    N    0.126667    0.383333    0.221900
N34    N    0.107000    0.335667    0.112275
C100    C    0.070000    0.662667    0.186700
H83    H    0.090000    0.647333    0.099925
C101    C    0.040000    0.633333    0.168100
C102    C    0.099000    0.366333    0.000800
H84    H    0.100000    0.374000    0.037775
H85    H    0.046667    0.660000    0.009025
O35    O    0.185333    0.447300    0.210475
O36    O    0.218800    0.457967    0.026025
C103    C    0.229600    0.507300    0.162775
C104    C    0.273867    0.512033    0.231400
C105    C    0.298500    0.538467    0.205975
H86    H    0.326933    0.549933    0.221600
H87    H    0.306867    0.521200    0.042025
N35    N    0.287533    0.550900    0.163425
N36    N    0.283800    0.505133    0.026225
C106    C    0.239000    0.494933    0.208200
H88    H    0.264300    0.487133    0.044400
C107    C    0.213733    0.466400    0.232125
C108    C    0.253733    0.535500    0.141525
H89    H    0.246200    0.546667    0.106900
H90    H    0.202433    0.496700    0.143825
Ni10    Ni    0.332900    0.583833    0.136475
O37    O    0.176667    0.376667    0.067250
O38    O    0.210000    0.380000    0.001100
C109    C    0.236333    0.660000    0.108950
C110    C    0.267667    0.654000    0.031925
C111    C    0.293333    0.626667    0.051150
H91    H    0.316667    0.610000    0.028475
H92    H    0.299333    0.653333    0.219300
N37    N    0.293333    0.616667    0.096900
N38    N    0.273667    0.664333    0.237275
C112    C    0.236667    0.337333    0.061700
H93    H    0.256667    0.352667    0.224925
C113    C    0.206667    0.366667    0.043100
C114    C    0.265667    0.633667    0.125800
H94    H    0.266667    0.626000    0.162775
H95    H    0.213333    0.340000    0.134025
O39    O    0.018667    0.552700    0.085475
O40    O    0.052133    0.542033    0.151025
C115    C    0.062933    0.492700    0.037775
C116    C    0.107200    0.487967    0.106400
C117    C    0.131833    0.461533    0.080975
H96    H    0.160267    0.450067    0.096600
H97    H    0.140200    0.478800    0.167025
N39    N    0.120867    0.449100    0.038425
N40    N    0.117133    0.494867    0.151225
C118    C    0.072333    0.505067    0.083200
H98    H    0.097633    0.512867    0.169400
C119    C    0.047067    0.533600    0.107125
C120    C    0.087067    0.464500    0.016525
H99    H    0.079533    0.453333    0.231900
H100    H    0.035767    0.503300    0.018825
Ni11    Ni    0.166233    0.416167    0.261475
O41    O    0.010000    0.623333    0.442250
O42    O    0.043333    0.620000    0.376100
C121    C    0.069667    0.340000    0.483950
C122    C    0.101000    0.346000    0.406925
C123    C    0.126667    0.373333    0.426150
H101    H    0.150000    0.390000    0.403475
H102    H    0.132667    0.346667    0.344300
N41    N    0.126667    0.383333    0.471900
N42    N    0.107000    0.335667    0.362275
C124    C    0.070000    0.662667    0.436700
H103    H    0.090000    0.647333    0.349925
C125    C    0.040000    0.633333    0.418100
C126    C    0.099000    0.366333    0.250800
H104    H    0.100000    0.374000    0.287775
H105    H    0.046667    0.660000    0.259025
O43    O    0.185333    0.447300    0.460475
O44    O    0.218800    0.457967    0.276025
C127    C    0.229600    0.507300    0.412775
C128    C    0.273867    0.512033    0.481400
C129    C    0.298500    0.538467    0.455975
H106    H    0.326933    0.549933    0.471600
H107    H    0.306867    0.521200    0.292025
N43    N    0.287533    0.550900    0.413425
N44    N    0.283800    0.505133    0.276225
C130    C    0.239000    0.494933    0.458200
H108    H    0.264300    0.487133    0.294400
C131    C    0.213733    0.466400    0.482125
C132    C    0.253733    0.535500    0.391525
H109    H    0.246200    0.546667    0.356900
H110    H    0.202433    0.496700    0.393825
Ni12    Ni    0.332900    0.583833    0.386475
O45    O    0.176667    0.376667    0.317250
O46    O    0.210000    0.380000    0.251100
C133    C    0.236333    0.660000    0.358950
C134    C    0.267667    0.654000    0.281925
C135    C    0.293333    0.626667    0.301150
H111    H    0.316667    0.610000    0.278475
H112    H    0.299333    0.653333    0.469300
N45    N    0.293333    0.616667    0.346900
N46    N    0.273667    0.664333    0.487275
C136    C    0.236667    0.337333    0.311700
H113    H    0.256667    0.352667    0.474925
C137    C    0.206667    0.366667    0.293100
C138    C    0.265667    0.633667    0.375800
H114    H    0.266667    0.626000    0.412775
H115    H    0.213333    0.340000    0.384025
O47    O    0.018667    0.552700    0.335475
O48    O    0.052133    0.542033    0.401025
C139    C    0.062933    0.492700    0.287775
C140    C    0.107200    0.487967    0.356400
C141    C    0.131833    0.461533    0.330975
H116    H    0.160267    0.450067    0.346600
H117    H    0.140200    0.478800    0.417025
N47    N    0.120867    0.449100    0.288425
N48    N    0.117133    0.494867    0.401225
C142    C    0.072333    0.505067    0.333200
H118    H    0.097633    0.512867    0.419400
C143    C    0.047067    0.533600    0.357125
C144    C    0.087067    0.464500    0.266525
H119    H    0.079533    0.453333    0.481900
H120    H    0.035767    0.503300    0.268825
Ni13    Ni    0.166233    0.416167    0.511475
O49    O    0.010000    0.623333    0.692250
O50    O    0.043333    0.620000    0.626100
C145    C    0.069667    0.340000    0.733950
C146    C    0.101000    0.346000    0.656925
C147    C    0.126667    0.373333    0.676150
H121    H    0.150000    0.390000    0.653475
H122    H    0.132667    0.346667    0.594300
N49    N    0.126667    0.383333    0.721900
N50    N    0.107000    0.335667    0.612275
C148    C    0.070000    0.662667    0.686700
H123    H    0.090000    0.647333    0.599925
C149    C    0.040000    0.633333    0.668100
C150    C    0.099000    0.366333    0.500800
H124    H    0.100000    0.374000    0.537775
H125    H    0.046667    0.660000    0.509025
O51    O    0.185333    0.447300    0.710475
O52    O    0.218800    0.457967    0.526025
C151    C    0.229600    0.507300    0.662775
C152    C    0.273867    0.512033    0.731400
C153    C    0.298500    0.538467    0.705975
H126    H    0.326933    0.549933    0.721600
H127    H    0.306867    0.521200    0.542025
N51    N    0.287533    0.550900    0.663425
N52    N    0.283800    0.505133    0.526225
C154    C    0.239000    0.494933    0.708200
H128    H    0.264300    0.487133    0.544400
C155    C    0.213733    0.466400    0.732125
C156    C    0.253733    0.535500    0.641525
H129    H    0.246200    0.546667    0.606900
H130    H    0.202433    0.496700    0.643825
Ni14    Ni    0.332900    0.583833    0.636475
O53    O    0.176667    0.376667    0.567250
O54    O    0.210000    0.380000    0.501100
C157    C    0.236333    0.660000    0.608950
C158    C    0.267667    0.654000    0.531925
C159    C    0.293333    0.626667    0.551150
H131    H    0.316667    0.610000    0.528475
H132    H    0.299333    0.653333    0.719300
N53    N    0.293333    0.616667    0.596900
N54    N    0.273667    0.664333    0.737275
C160    C    0.236667    0.337333    0.561700
H133    H    0.256667    0.352667    0.724925
C161    C    0.206667    0.366667    0.543100
C162    C    0.265667    0.633667    0.625800
H134    H    0.266667    0.626000    0.662775
H135    H    0.213333    0.340000    0.634025
O55    O    0.018667    0.552700    0.585475
O56    O    0.052133    0.542033    0.651025
C163    C    0.062933    0.492700    0.537775
C164    C    0.107200    0.487967    0.606400
C165    C    0.131833    0.461533    0.580975
H136    H    0.160267    0.450067    0.596600
H137    H    0.140200    0.478800    0.667025
N55    N    0.120867    0.449100    0.538425
N56    N    0.117133    0.494867    0.651225
C166    C    0.072333    0.505067    0.583200
H138    H    0.097633    0.512867    0.669400
C167    C    0.047067    0.533600    0.607125
C168    C    0.087067    0.464500    0.516525
H139    H    0.079533    0.453333    0.731900
H140    H    0.035767    0.503300    0.518825
Ni15    Ni    0.166233    0.416167    0.761475
O57    O    0.010000    0.623333    0.942250
O58    O    0.043333    0.620000    0.876100
C169    C    0.069667    0.340000    0.983950
C170    C    0.101000    0.346000    0.906925
C171    C    0.126667    0.373333    0.926150
H141    H    0.150000    0.390000    0.903475
H142    H    0.132667    0.346667    0.844300
N57    N    0.126667    0.383333    0.971900
N58    N    0.107000    0.335667    0.862275
C172    C    0.070000    0.662667    0.936700
H143    H    0.090000    0.647333    0.849925
C173    C    0.040000    0.633333    0.918100
C174    C    0.099000    0.366333    0.750800
H144    H    0.100000    0.374000    0.787775
H145    H    0.046667    0.660000    0.759025
O59    O    0.185333    0.447300    0.960475
O60    O    0.218800    0.457967    0.776025
C175    C    0.229600    0.507300    0.912775
C176    C    0.273867    0.512033    0.981400
C177    C    0.298500    0.538467    0.955975
H146    H    0.326933    0.549933    0.971600
H147    H    0.306867    0.521200    0.792025
N59    N    0.287533    0.550900    0.913425
N60    N    0.283800    0.505133    0.776225
C178    C    0.239000    0.494933    0.958200
H148    H    0.264300    0.487133    0.794400
C179    C    0.213733    0.466400    0.982125
C180    C    0.253733    0.535500    0.891525
H149    H    0.246200    0.546667    0.856900
H150    H    0.202433    0.496700    0.893825
Ni16    Ni    0.332900    0.583833    0.886475
O61    O    0.176667    0.376667    0.817250
O62    O    0.210000    0.380000    0.751100
C181    C    0.236333    0.660000    0.858950
C182    C    0.267667    0.654000    0.781925
C183    C    0.293333    0.626667    0.801150
H151    H    0.316667    0.610000    0.778475
H152    H    0.299333    0.653333    0.969300
N61    N    0.293333    0.616667    0.846900
N62    N    0.273667    0.664333    0.987275
C184    C    0.236667    0.337333    0.811700
H153    H    0.256667    0.352667    0.974925
C185    C    0.206667    0.366667    0.793100
C186    C    0.265667    0.633667    0.875800
H154    H    0.266667    0.626000    0.912775
H155    H    0.213333    0.340000    0.884025
O63    O    0.018667    0.552700    0.835475
O64    O    0.052133    0.542033    0.901025
C187    C    0.062933    0.492700    0.787775
C188    C    0.107200    0.487967    0.856400
C189    C    0.131833    0.461533    0.830975
H156    H    0.160267    0.450067    0.846600
H157    H    0.140200    0.478800    0.917025
N63    N    0.120867    0.449100    0.788425
N64    N    0.117133    0.494867    0.901225
C190    C    0.072333    0.505067    0.833200
H158    H    0.097633    0.512867    0.919400
C191    C    0.047067    0.533600    0.857125
C192    C    0.087067    0.464500    0.766525
H159    H    0.079533    0.453333    0.981900
H160    H    0.035767    0.503300    0.768825
Ni17    Ni    0.166233    0.749500    0.011475
O65    O    0.010000    0.956667    0.192250
O66    O    0.043333    0.953333    0.126100
C193    C    0.069667    0.673333    0.233950
C194    C    0.101000    0.679333    0.156925
C195    C    0.126667    0.706667    0.176150
H161    H    0.150000    0.723333    0.153475
H162    H    0.132667    0.680000    0.094300
N65    N    0.126667    0.716667    0.221900
N66    N    0.107000    0.669000    0.112275
C196    C    0.070000    0.996000    0.186700
H163    H    0.090000    0.980667    0.099925
C197    C    0.040000    0.966667    0.168100
C198    C    0.099000    0.699667    0.000800
H164    H    0.100000    0.707333    0.037775
H165    H    0.046667    0.993333    0.009025
O67    O    0.185333    0.780633    0.210475
O68    O    0.218800    0.791300    0.026025
C199    C    0.229600    0.840633    0.162775
C200    C    0.273867    0.845367    0.231400
C201    C    0.298500    0.871800    0.205975
H166    H    0.326933    0.883267    0.221600
H167    H    0.306867    0.854533    0.042025
N67    N    0.287533    0.884233    0.163425
N68    N    0.283800    0.838467    0.026225
C202    C    0.239000    0.828267    0.208200
H168    H    0.264300    0.820467    0.044400
C203    C    0.213733    0.799733    0.232125
C204    C    0.253733    0.868833    0.141525
H169    H    0.246200    0.880000    0.106900
H170    H    0.202433    0.830033    0.143825
Ni18    Ni    0.332900    0.917167    0.136475
O69    O    0.176667    0.710000    0.067250
O70    O    0.210000    0.713333    0.001100
C205    C    0.236333    0.993333    0.108950
C206    C    0.267667    0.987333    0.031925
C207    C    0.293333    0.960000    0.051150
H171    H    0.316667    0.943333    0.028475
H172    H    0.299333    0.986667    0.219300
N69    N    0.293333    0.950000    0.096900
N70    N    0.273667    0.997667    0.237275
C208    C    0.236667    0.670667    0.061700
H173    H    0.256667    0.686000    0.224925
C209    C    0.206667    0.700000    0.043100
C210    C    0.265667    0.967000    0.125800
H174    H    0.266667    0.959333    0.162775
H175    H    0.213333    0.673333    0.134025
O71    O    0.018667    0.886033    0.085475
O72    O    0.052133    0.875367    0.151025
C211    C    0.062933    0.826033    0.037775
C212    C    0.107200    0.821300    0.106400
C213    C    0.131833    0.794867    0.080975
H176    H    0.160267    0.783400    0.096600
H177    H    0.140200    0.812133    0.167025
N71    N    0.120867    0.782433    0.038425
N72    N    0.117133    0.828200    0.151225
C214    C    0.072333    0.838400    0.083200
H178    H    0.097633    0.846200    0.169400
C215    C    0.047067    0.866933    0.107125
C216    C    0.087067    0.797833    0.016525
H179    H    0.079533    0.786667    0.231900
H180    H    0.035767    0.836633    0.018825
Ni19    Ni    0.166233    0.749500    0.261475
O73    O    0.010000    0.956667    0.442250
O74    O    0.043333    0.953333    0.376100
C217    C    0.069667    0.673333    0.483950
C218    C    0.101000    0.679333    0.406925
C219    C    0.126667    0.706667    0.426150
H181    H    0.150000    0.723333    0.403475
H182    H    0.132667    0.680000    0.344300
N73    N    0.126667    0.716667    0.471900
N74    N    0.107000    0.669000    0.362275
C220    C    0.070000    0.996000    0.436700
H183    H    0.090000    0.980667    0.349925
C221    C    0.040000    0.966667    0.418100
C222    C    0.099000    0.699667    0.250800
H184    H    0.100000    0.707333    0.287775
H185    H    0.046667    0.993333    0.259025
O75    O    0.185333    0.780633    0.460475
O76    O    0.218800    0.791300    0.276025
C223    C    0.229600    0.840633    0.412775
C224    C    0.273867    0.845367    0.481400
C225    C    0.298500    0.871800    0.455975
H186    H    0.326933    0.883267    0.471600
H187    H    0.306867    0.854533    0.292025
N75    N    0.287533    0.884233    0.413425
N76    N    0.283800    0.838467    0.276225
C226    C    0.239000    0.828267    0.458200
H188    H    0.264300    0.820467    0.294400
C227    C    0.213733    0.799733    0.482125
C228    C    0.253733    0.868833    0.391525
H189    H    0.246200    0.880000    0.356900
H190    H    0.202433    0.830033    0.393825
Ni20    Ni    0.332900    0.917167    0.386475
O77    O    0.176667    0.710000    0.317250
O78    O    0.210000    0.713333    0.251100
C229    C    0.236333    0.993333    0.358950
C230    C    0.267667    0.987333    0.281925
C231    C    0.293333    0.960000    0.301150
H191    H    0.316667    0.943333    0.278475
H192    H    0.299333    0.986667    0.469300
N77    N    0.293333    0.950000    0.346900
N78    N    0.273667    0.997667    0.487275
C232    C    0.236667    0.670667    0.311700
H193    H    0.256667    0.686000    0.474925
C233    C    0.206667    0.700000    0.293100
C234    C    0.265667    0.967000    0.375800
H194    H    0.266667    0.959333    0.412775
H195    H    0.213333    0.673333    0.384025
O79    O    0.018667    0.886033    0.335475
O80    O    0.052133    0.875367    0.401025
C235    C    0.062933    0.826033    0.287775
C236    C    0.107200    0.821300    0.356400
C237    C    0.131833    0.794867    0.330975
H196    H    0.160267    0.783400    0.346600
H197    H    0.140200    0.812133    0.417025
N79    N    0.120867    0.782433    0.288425
N80    N    0.117133    0.828200    0.401225
C238    C    0.072333    0.838400    0.333200
H198    H    0.097633    0.846200    0.419400
C239    C    0.047067    0.866933    0.357125
C240    C    0.087067    0.797833    0.266525
H199    H    0.079533    0.786667    0.481900
H200    H    0.035767    0.836633    0.268825
Ni21    Ni    0.166233    0.749500    0.511475
O81    O    0.010000    0.956667    0.692250
O82    O    0.043333    0.953333    0.626100
C241    C    0.069667    0.673333    0.733950
C242    C    0.101000    0.679333    0.656925
C243    C    0.126667    0.706667    0.676150
H201    H    0.150000    0.723333    0.653475
H202    H    0.132667    0.680000    0.594300
N81    N    0.126667    0.716667    0.721900
N82    N    0.107000    0.669000    0.612275
C244    C    0.070000    0.996000    0.686700
H203    H    0.090000    0.980667    0.599925
C245    C    0.040000    0.966667    0.668100
C246    C    0.099000    0.699667    0.500800
H204    H    0.100000    0.707333    0.537775
H205    H    0.046667    0.993333    0.509025
O83    O    0.185333    0.780633    0.710475
O84    O    0.218800    0.791300    0.526025
C247    C    0.229600    0.840633    0.662775
C248    C    0.273867    0.845367    0.731400
C249    C    0.298500    0.871800    0.705975
H206    H    0.326933    0.883267    0.721600
H207    H    0.306867    0.854533    0.542025
N83    N    0.287533    0.884233    0.663425
N84    N    0.283800    0.838467    0.526225
C250    C    0.239000    0.828267    0.708200
H208    H    0.264300    0.820467    0.544400
C251    C    0.213733    0.799733    0.732125
C252    C    0.253733    0.868833    0.641525
H209    H    0.246200    0.880000    0.606900
H210    H    0.202433    0.830033    0.643825
Ni22    Ni    0.332900    0.917167    0.636475
O85    O    0.176667    0.710000    0.567250
O86    O    0.210000    0.713333    0.501100
C253    C    0.236333    0.993333    0.608950
C254    C    0.267667    0.987333    0.531925
C255    C    0.293333    0.960000    0.551150
H211    H    0.316667    0.943333    0.528475
H212    H    0.299333    0.986667    0.719300
N85    N    0.293333    0.950000    0.596900
N86    N    0.273667    0.997667    0.737275
C256    C    0.236667    0.670667    0.561700
H213    H    0.256667    0.686000    0.724925
C257    C    0.206667    0.700000    0.543100
C258    C    0.265667    0.967000    0.625800
H214    H    0.266667    0.959333    0.662775
H215    H    0.213333    0.673333    0.634025
O87    O    0.018667    0.886033    0.585475
O88    O    0.052133    0.875367    0.651025
C259    C    0.062933    0.826033    0.537775
C260    C    0.107200    0.821300    0.606400
C261    C    0.131833    0.794867    0.580975
H216    H    0.160267    0.783400    0.596600
H217    H    0.140200    0.812133    0.667025
N87    N    0.120867    0.782433    0.538425
N88    N    0.117133    0.828200    0.651225
C262    C    0.072333    0.838400    0.583200
H218    H    0.097633    0.846200    0.669400
C263    C    0.047067    0.866933    0.607125
C264    C    0.087067    0.797833    0.516525
H219    H    0.079533    0.786667    0.731900
H220    H    0.035767    0.836633    0.518825
Ni23    Ni    0.166233    0.749500    0.761475
O89    O    0.010000    0.956667    0.942250
O90    O    0.043333    0.953333    0.876100
C265    C    0.069667    0.673333    0.983950
C266    C    0.101000    0.679333    0.906925
C267    C    0.126667    0.706667    0.926150
H221    H    0.150000    0.723333    0.903475
H222    H    0.132667    0.680000    0.844300
N89    N    0.126667    0.716667    0.971900
N90    N    0.107000    0.669000    0.862275
C268    C    0.070000    0.996000    0.936700
H223    H    0.090000    0.980667    0.849925
C269    C    0.040000    0.966667    0.918100
C270    C    0.099000    0.699667    0.750800
H224    H    0.100000    0.707333    0.787775
H225    H    0.046667    0.993333    0.759025
O91    O    0.185333    0.780633    0.960475
O92    O    0.218800    0.791300    0.776025
C271    C    0.229600    0.840633    0.912775
C272    C    0.273867    0.845367    0.981400
C273    C    0.298500    0.871800    0.955975
H226    H    0.326933    0.883267    0.971600
H227    H    0.306867    0.854533    0.792025
N91    N    0.287533    0.884233    0.913425
N92    N    0.283800    0.838467    0.776225
C274    C    0.239000    0.828267    0.958200
H228    H    0.264300    0.820467    0.794400
C275    C    0.213733    0.799733    0.982125
C276    C    0.253733    0.868833    0.891525
H229    H    0.246200    0.880000    0.856900
H230    H    0.202433    0.830033    0.893825
Ni24    Ni    0.332900    0.917167    0.886475
O93    O    0.176667    0.710000    0.817250
O94    O    0.210000    0.713333    0.751100
C277    C    0.236333    0.993333    0.858950
C278    C    0.267667    0.987333    0.781925
C279    C    0.293333    0.960000    0.801150
H231    H    0.316667    0.943333    0.778475
H232    H    0.299333    0.986667    0.969300
N93    N    0.293333    0.950000    0.846900
N94    N    0.273667    0.997667    0.987275
C280    C    0.236667    0.670667    0.811700
H233    H    0.256667    0.686000    0.974925
C281    C    0.206667    0.700000    0.793100
C282    C    0.265667    0.967000    0.875800
H234    H    0.266667    0.959333    0.912775
H235    H    0.213333    0.673333    0.884025
O95    O    0.018667    0.886033    0.835475
O96    O    0.052133    0.875367    0.901025
C283    C    0.062933    0.826033    0.787775
C284    C    0.107200    0.821300    0.856400
C285    C    0.131833    0.794867    0.830975
H236    H    0.160267    0.783400    0.846600
H237    H    0.140200    0.812133    0.917025
N95    N    0.120867    0.782433    0.788425
N96    N    0.117133    0.828200    0.901225
C286    C    0.072333    0.838400    0.833200
H238    H    0.097633    0.846200    0.919400
C287    C    0.047067    0.866933    0.857125
C288    C    0.087067    0.797833    0.766525
H239    H    0.079533    0.786667    0.981900
H240    H    0.035767    0.836633    0.768825
Ni25    Ni    0.499567    0.082833    0.011475
O97    O    0.343333    0.290000    0.192250
O98    O    0.376667    0.286667    0.126100
C289    C    0.403000    0.006667    0.233950
C290    C    0.434333    0.012667    0.156925
C291    C    0.460000    0.040000    0.176150
H241    H    0.483333    0.056667    0.153475
H242    H    0.466000    0.013333    0.094300
N97    N    0.460000    0.050000    0.221900
N98    N    0.440333    0.002333    0.112275
C292    C    0.403333    0.329333    0.186700
H243    H    0.423333    0.314000    0.099925
C293    C    0.373333    0.300000    0.168100
C294    C    0.432333    0.033000    0.000800
H244    H    0.433333    0.040667    0.037775
H245    H    0.380000    0.326667    0.009025
O99    O    0.518667    0.113967    0.210475
O100    O    0.552133    0.124633    0.026025
C295    C    0.562933    0.173967    0.162775
C296    C    0.607200    0.178700    0.231400
C297    C    0.631833    0.205133    0.205975
H246    H    0.660267    0.216600    0.221600
H247    H    0.640200    0.187867    0.042025
N99    N    0.620867    0.217567    0.163425
N100    N    0.617133    0.171800    0.026225
C298    C    0.572333    0.161600    0.208200
H248    H    0.597633    0.153800    0.044400
C299    C    0.547067    0.133067    0.232125
C300    C    0.587067    0.202167    0.141525
H249    H    0.579533    0.213333    0.106900
H250    H    0.535767    0.163367    0.143825
Ni26    Ni    0.666233    0.250500    0.136475
O101    O    0.510000    0.043333    0.067250
O102    O    0.543333    0.046667    0.001100
C301    C    0.569667    0.326667    0.108950
C302    C    0.601000    0.320667    0.031925
C303    C    0.626667    0.293333    0.051150
H251    H    0.650000    0.276667    0.028475
H252    H    0.632667    0.320000    0.219300
N101    N    0.626667    0.283333    0.096900
N102    N    0.607000    0.331000    0.237275
C304    C    0.570000    0.004000    0.061700
H253    H    0.590000    0.019333    0.224925
C305    C    0.540000    0.033333    0.043100
C306    C    0.599000    0.300333    0.125800
H254    H    0.600000    0.292667    0.162775
H255    H    0.546667    0.006667    0.134025
O103    O    0.352000    0.219367    0.085475
O104    O    0.385467    0.208700    0.151025
C307    C    0.396267    0.159367    0.037775
C308    C    0.440533    0.154633    0.106400
C309    C    0.465167    0.128200    0.080975
H256    H    0.493600    0.116733    0.096600
H257    H    0.473533    0.145467    0.167025
N103    N    0.454200    0.115767    0.038425
N104    N    0.450467    0.161533    0.151225
C310    C    0.405667    0.171733    0.083200
H258    H    0.430967    0.179533    0.169400
C311    C    0.380400    0.200267    0.107125
C312    C    0.420400    0.131167    0.016525
H259    H    0.412867    0.120000    0.231900
H260    H    0.369100    0.169967    0.018825
Ni27    Ni    0.499567    0.082833    0.261475
O105    O    0.343333    0.290000    0.442250
O106    O    0.376667    0.286667    0.376100
C313    C    0.403000    0.006667    0.483950
C314    C    0.434333    0.012667    0.406925
C315    C    0.460000    0.040000    0.426150
H261    H    0.483333    0.056667    0.403475
H262    H    0.466000    0.013333    0.344300
N105    N    0.460000    0.050000    0.471900
N106    N    0.440333    0.002333    0.362275
C316    C    0.403333    0.329333    0.436700
H263    H    0.423333    0.314000    0.349925
C317    C    0.373333    0.300000    0.418100
C318    C    0.432333    0.033000    0.250800
H264    H    0.433333    0.040667    0.287775
H265    H    0.380000    0.326667    0.259025
O107    O    0.518667    0.113967    0.460475
O108    O    0.552133    0.124633    0.276025
C319    C    0.562933    0.173967    0.412775
C320    C    0.607200    0.178700    0.481400
C321    C    0.631833    0.205133    0.455975
H266    H    0.660267    0.216600    0.471600
H267    H    0.640200    0.187867    0.292025
N107    N    0.620867    0.217567    0.413425
N108    N    0.617133    0.171800    0.276225
C322    C    0.572333    0.161600    0.458200
H268    H    0.597633    0.153800    0.294400
C323    C    0.547067    0.133067    0.482125
C324    C    0.587067    0.202167    0.391525
H269    H    0.579533    0.213333    0.356900
H270    H    0.535767    0.163367    0.393825
Ni28    Ni    0.666233    0.250500    0.386475
O109    O    0.510000    0.043333    0.317250
O110    O    0.543333    0.046667    0.251100
C325    C    0.569667    0.326667    0.358950
C326    C    0.601000    0.320667    0.281925
C327    C    0.626667    0.293333    0.301150
H271    H    0.650000    0.276667    0.278475
H272    H    0.632667    0.320000    0.469300
N109    N    0.626667    0.283333    0.346900
N110    N    0.607000    0.331000    0.487275
C328    C    0.570000    0.004000    0.311700
H273    H    0.590000    0.019333    0.474925
C329    C    0.540000    0.033333    0.293100
C330    C    0.599000    0.300333    0.375800
H274    H    0.600000    0.292667    0.412775
H275    H    0.546667    0.006667    0.384025
O111    O    0.352000    0.219367    0.335475
O112    O    0.385467    0.208700    0.401025
C331    C    0.396267    0.159367    0.287775
C332    C    0.440533    0.154633    0.356400
C333    C    0.465167    0.128200    0.330975
H276    H    0.493600    0.116733    0.346600
H277    H    0.473533    0.145467    0.417025
N111    N    0.454200    0.115767    0.288425
N112    N    0.450467    0.161533    0.401225
C334    C    0.405667    0.171733    0.333200
H278    H    0.430967    0.179533    0.419400
C335    C    0.380400    0.200267    0.357125
C336    C    0.420400    0.131167    0.266525
H279    H    0.412867    0.120000    0.481900
H280    H    0.369100    0.169967    0.268825
Ni29    Ni    0.499567    0.082833    0.511475
O113    O    0.343333    0.290000    0.692250
O114    O    0.376667    0.286667    0.626100
C337    C    0.403000    0.006667    0.733950
C338    C    0.434333    0.012667    0.656925
C339    C    0.460000    0.040000    0.676150
H281    H    0.483333    0.056667    0.653475
H282    H    0.466000    0.013333    0.594300
N113    N    0.460000    0.050000    0.721900
N114    N    0.440333    0.002333    0.612275
C340    C    0.403333    0.329333    0.686700
H283    H    0.423333    0.314000    0.599925
C341    C    0.373333    0.300000    0.668100
C342    C    0.432333    0.033000    0.500800
H284    H    0.433333    0.040667    0.537775
H285    H    0.380000    0.326667    0.509025
O115    O    0.518667    0.113967    0.710475
O116    O    0.552133    0.124633    0.526025
C343    C    0.562933    0.173967    0.662775
C344    C    0.607200    0.178700    0.731400
C345    C    0.631833    0.205133    0.705975
H286    H    0.660267    0.216600    0.721600
H287    H    0.640200    0.187867    0.542025
N115    N    0.620867    0.217567    0.663425
N116    N    0.617133    0.171800    0.526225
C346    C    0.572333    0.161600    0.708200
H288    H    0.597633    0.153800    0.544400
C347    C    0.547067    0.133067    0.732125
C348    C    0.587067    0.202167    0.641525
H289    H    0.579533    0.213333    0.606900
H290    H    0.535767    0.163367    0.643825
Ni30    Ni    0.666233    0.250500    0.636475
O117    O    0.510000    0.043333    0.567250
O118    O    0.543333    0.046667    0.501100
C349    C    0.569667    0.326667    0.608950
C350    C    0.601000    0.320667    0.531925
C351    C    0.626667    0.293333    0.551150
H291    H    0.650000    0.276667    0.528475
H292    H    0.632667    0.320000    0.719300
N117    N    0.626667    0.283333    0.596900
N118    N    0.607000    0.331000    0.737275
C352    C    0.570000    0.004000    0.561700
H293    H    0.590000    0.019333    0.724925
C353    C    0.540000    0.033333    0.543100
C354    C    0.599000    0.300333    0.625800
H294    H    0.600000    0.292667    0.662775
H295    H    0.546667    0.006667    0.634025
O119    O    0.352000    0.219367    0.585475
O120    O    0.385467    0.208700    0.651025
C355    C    0.396267    0.159367    0.537775
C356    C    0.440533    0.154633    0.606400
C357    C    0.465167    0.128200    0.580975
H296    H    0.493600    0.116733    0.596600
H297    H    0.473533    0.145467    0.667025
N119    N    0.454200    0.115767    0.538425
N120    N    0.450467    0.161533    0.651225
C358    C    0.405667    0.171733    0.583200
H298    H    0.430967    0.179533    0.669400
C359    C    0.380400    0.200267    0.607125
C360    C    0.420400    0.131167    0.516525
H299    H    0.412867    0.120000    0.731900
H300    H    0.369100    0.169967    0.518825
Ni31    Ni    0.499567    0.082833    0.761475
O121    O    0.343333    0.290000    0.942250
O122    O    0.376667    0.286667    0.876100
C361    C    0.403000    0.006667    0.983950
C362    C    0.434333    0.012667    0.906925
C363    C    0.460000    0.040000    0.926150
H301    H    0.483333    0.056667    0.903475
H302    H    0.466000    0.013333    0.844300
N121    N    0.460000    0.050000    0.971900
N122    N    0.440333    0.002333    0.862275
C364    C    0.403333    0.329333    0.936700
H303    H    0.423333    0.314000    0.849925
C365    C    0.373333    0.300000    0.918100
C366    C    0.432333    0.033000    0.750800
H304    H    0.433333    0.040667    0.787775
H305    H    0.380000    0.326667    0.759025
O123    O    0.518667    0.113967    0.960475
O124    O    0.552133    0.124633    0.776025
C367    C    0.562933    0.173967    0.912775
C368    C    0.607200    0.178700    0.981400
C369    C    0.631833    0.205133    0.955975
H306    H    0.660267    0.216600    0.971600
H307    H    0.640200    0.187867    0.792025
N123    N    0.620867    0.217567    0.913425
N124    N    0.617133    0.171800    0.776225
C370    C    0.572333    0.161600    0.958200
H308    H    0.597633    0.153800    0.794400
C371    C    0.547067    0.133067    0.982125
C372    C    0.587067    0.202167    0.891525
H309    H    0.579533    0.213333    0.856900
H310    H    0.535767    0.163367    0.893825
Ni32    Ni    0.666233    0.250500    0.886475
O125    O    0.510000    0.043333    0.817250
O126    O    0.543333    0.046667    0.751100
C373    C    0.569667    0.326667    0.858950
C374    C    0.601000    0.320667    0.781925
C375    C    0.626667    0.293333    0.801150
H311    H    0.650000    0.276667    0.778475
H312    H    0.632667    0.320000    0.969300
N125    N    0.626667    0.283333    0.846900
N126    N    0.607000    0.331000    0.987275
C376    C    0.570000    0.004000    0.811700
H313    H    0.590000    0.019333    0.974925
C377    C    0.540000    0.033333    0.793100
C378    C    0.599000    0.300333    0.875800
H314    H    0.600000    0.292667    0.912775
H315    H    0.546667    0.006667    0.884025
O127    O    0.352000    0.219367    0.835475
O128    O    0.385467    0.208700    0.901025
C379    C    0.396267    0.159367    0.787775
C380    C    0.440533    0.154633    0.856400
C381    C    0.465167    0.128200    0.830975
H316    H    0.493600    0.116733    0.846600
H317    H    0.473533    0.145467    0.917025
N127    N    0.454200    0.115767    0.788425
N128    N    0.450467    0.161533    0.901225
C382    C    0.405667    0.171733    0.833200
H318    H    0.430967    0.179533    0.919400
C383    C    0.380400    0.200267    0.857125
C384    C    0.420400    0.131167    0.766525
H319    H    0.412867    0.120000    0.981900
H320    H    0.369100    0.169967    0.768825
Ni33    Ni    0.499567    0.416167    0.011475
O129    O    0.343333    0.623333    0.192250
O130    O    0.376667    0.620000    0.126100
C385    C    0.403000    0.340000    0.233950
C386    C    0.434333    0.346000    0.156925
C387    C    0.460000    0.373333    0.176150
H321    H    0.483333    0.390000    0.153475
H322    H    0.466000    0.346667    0.094300
N129    N    0.460000    0.383333    0.221900
N130    N    0.440333    0.335667    0.112275
C388    C    0.403333    0.662667    0.186700
H323    H    0.423333    0.647333    0.099925
C389    C    0.373333    0.633333    0.168100
C390    C    0.432333    0.366333    0.000800
H324    H    0.433333    0.374000    0.037775
H325    H    0.380000    0.660000    0.009025
O131    O    0.518667    0.447300    0.210475
O132    O    0.552133    0.457967    0.026025
C391    C    0.562933    0.507300    0.162775
C392    C    0.607200    0.512033    0.231400
C393    C    0.631833    0.538467    0.205975
H326    H    0.660267    0.549933    0.221600
H327    H    0.640200    0.521200    0.042025
N131    N    0.620867    0.550900    0.163425
N132    N    0.617133    0.505133    0.026225
C394    C    0.572333    0.494933    0.208200
H328    H    0.597633    0.487133    0.044400
C395    C    0.547067    0.466400    0.232125
C396    C    0.587067    0.535500    0.141525
H329    H    0.579533    0.546667    0.106900
H330    H    0.535767    0.496700    0.143825
Ni34    Ni    0.666233    0.583833    0.136475
O133    O    0.510000    0.376667    0.067250
O134    O    0.543333    0.380000    0.001100
C397    C    0.569667    0.660000    0.108950
C398    C    0.601000    0.654000    0.031925
C399    C    0.626667    0.626667    0.051150
H331    H    0.650000    0.610000    0.028475
H332    H    0.632667    0.653333    0.219300
N133    N    0.626667    0.616667    0.096900
N134    N    0.607000    0.664333    0.237275
C400    C    0.570000    0.337333    0.061700
H333    H    0.590000    0.352667    0.224925
C401    C    0.540000    0.366667    0.043100
C402    C    0.599000    0.633667    0.125800
H334    H    0.600000    0.626000    0.162775
H335    H    0.546667    0.340000    0.134025
O135    O    0.352000    0.552700    0.085475
O136    O    0.385467    0.542033    0.151025
C403    C    0.396267    0.492700    0.037775
C404    C    0.440533    0.487967    0.106400
C405    C    0.465167    0.461533    0.080975
H336    H    0.493600    0.450067    0.096600
H337    H    0.473533    0.478800    0.167025
N135    N    0.454200    0.449100    0.038425
N136    N    0.450467    0.494867    0.151225
C406    C    0.405667    0.505067    0.083200
H338    H    0.430967    0.512867    0.169400
C407    C    0.380400    0.533600    0.107125
C408    C    0.420400    0.464500    0.016525
H339    H    0.412867    0.453333    0.231900
H340    H    0.369100    0.503300    0.018825
Ni35    Ni    0.499567    0.416167    0.261475
O137    O    0.343333    0.623333    0.442250
O138    O    0.376667    0.620000    0.376100
C409    C    0.403000    0.340000    0.483950
C410    C    0.434333    0.346000    0.406925
C411    C    0.460000    0.373333    0.426150
H341    H    0.483333    0.390000    0.403475
H342    H    0.466000    0.346667    0.344300
N137    N    0.460000    0.383333    0.471900
N138    N    0.440333    0.335667    0.362275
C412    C    0.403333    0.662667    0.436700
H343    H    0.423333    0.647333    0.349925
C413    C    0.373333    0.633333    0.418100
C414    C    0.432333    0.366333    0.250800
H344    H    0.433333    0.374000    0.287775
H345    H    0.380000    0.660000    0.259025
O139    O    0.518667    0.447300    0.460475
O140    O    0.552133    0.457967    0.276025
C415    C    0.562933    0.507300    0.412775
C416    C    0.607200    0.512033    0.481400
C417    C    0.631833    0.538467    0.455975
H346    H    0.660267    0.549933    0.471600
H347    H    0.640200    0.521200    0.292025
N139    N    0.620867    0.550900    0.413425
N140    N    0.617133    0.505133    0.276225
C418    C    0.572333    0.494933    0.458200
H348    H    0.597633    0.487133    0.294400
C419    C    0.547067    0.466400    0.482125
C420    C    0.587067    0.535500    0.391525
H349    H    0.579533    0.546667    0.356900
H350    H    0.535767    0.496700    0.393825
Ni36    Ni    0.666233    0.583833    0.386475
O141    O    0.510000    0.376667    0.317250
O142    O    0.543333    0.380000    0.251100
C421    C    0.569667    0.660000    0.358950
C422    C    0.601000    0.654000    0.281925
C423    C    0.626667    0.626667    0.301150
H351    H    0.650000    0.610000    0.278475
H352    H    0.632667    0.653333    0.469300
N141    N    0.626667    0.616667    0.346900
N142    N    0.607000    0.664333    0.487275
C424    C    0.570000    0.337333    0.311700
H353    H    0.590000    0.352667    0.474925
C425    C    0.540000    0.366667    0.293100
C426    C    0.599000    0.633667    0.375800
H354    H    0.600000    0.626000    0.412775
H355    H    0.546667    0.340000    0.384025
O143    O    0.352000    0.552700    0.335475
O144    O    0.385467    0.542033    0.401025
C427    C    0.396267    0.492700    0.287775
C428    C    0.440533    0.487967    0.356400
C429    C    0.465167    0.461533    0.330975
H356    H    0.493600    0.450067    0.346600
H357    H    0.473533    0.478800    0.417025
N143    N    0.454200    0.449100    0.288425
N144    N    0.450467    0.494867    0.401225
C430    C    0.405667    0.505067    0.333200
H358    H    0.430967    0.512867    0.419400
C431    C    0.380400    0.533600    0.357125
C432    C    0.420400    0.464500    0.266525
H359    H    0.412867    0.453333    0.481900
H360    H    0.369100    0.503300    0.268825
Ni37    Ni    0.499567    0.416167    0.511475
O145    O    0.343333    0.623333    0.692250
O146    O    0.376667    0.620000    0.626100
C433    C    0.403000    0.340000    0.733950
C434    C    0.434333    0.346000    0.656925
C435    C    0.460000    0.373333    0.676150
H361    H    0.483333    0.390000    0.653475
H362    H    0.466000    0.346667    0.594300
N145    N    0.460000    0.383333    0.721900
N146    N    0.440333    0.335667    0.612275
C436    C    0.403333    0.662667    0.686700
H363    H    0.423333    0.647333    0.599925
C437    C    0.373333    0.633333    0.668100
C438    C    0.432333    0.366333    0.500800
H364    H    0.433333    0.374000    0.537775
H365    H    0.380000    0.660000    0.509025
O147    O    0.518667    0.447300    0.710475
O148    O    0.552133    0.457967    0.526025
C439    C    0.562933    0.507300    0.662775
C440    C    0.607200    0.512033    0.731400
C441    C    0.631833    0.538467    0.705975
H366    H    0.660267    0.549933    0.721600
H367    H    0.640200    0.521200    0.542025
N147    N    0.620867    0.550900    0.663425
N148    N    0.617133    0.505133    0.526225
C442    C    0.572333    0.494933    0.708200
H368    H    0.597633    0.487133    0.544400
C443    C    0.547067    0.466400    0.732125
C444    C    0.587067    0.535500    0.641525
H369    H    0.579533    0.546667    0.606900
H370    H    0.535767    0.496700    0.643825
Ni38    Ni    0.666233    0.583833    0.636475
O149    O    0.510000    0.376667    0.567250
O150    O    0.543333    0.380000    0.501100
C445    C    0.569667    0.660000    0.608950
C446    C    0.601000    0.654000    0.531925
C447    C    0.626667    0.626667    0.551150
H371    H    0.650000    0.610000    0.528475
H372    H    0.632667    0.653333    0.719300
N149    N    0.626667    0.616667    0.596900
N150    N    0.607000    0.664333    0.737275
C448    C    0.570000    0.337333    0.561700
H373    H    0.590000    0.352667    0.724925
C449    C    0.540000    0.366667    0.543100
C450    C    0.599000    0.633667    0.625800
H374    H    0.600000    0.626000    0.662775
H375    H    0.546667    0.340000    0.634025
O151    O    0.352000    0.552700    0.585475
O152    O    0.385467    0.542033    0.651025
C451    C    0.396267    0.492700    0.537775
C452    C    0.440533    0.487967    0.606400
C453    C    0.465167    0.461533    0.580975
H376    H    0.493600    0.450067    0.596600
H377    H    0.473533    0.478800    0.667025
N151    N    0.454200    0.449100    0.538425
N152    N    0.450467    0.494867    0.651225
C454    C    0.405667    0.505067    0.583200
H378    H    0.430967    0.512867    0.669400
C455    C    0.380400    0.533600    0.607125
C456    C    0.420400    0.464500    0.516525
H379    H    0.412867    0.453333    0.731900
H380    H    0.369100    0.503300    0.518825
Ni39    Ni    0.499567    0.416167    0.761475
O153    O    0.343333    0.623333    0.942250
O154    O    0.376667    0.620000    0.876100
C457    C    0.403000    0.340000    0.983950
C458    C    0.434333    0.346000    0.906925
C459    C    0.460000    0.373333    0.926150
H381    H    0.483333    0.390000    0.903475
H382    H    0.466000    0.346667    0.844300
N153    N    0.460000    0.383333    0.971900
N154    N    0.440333    0.335667    0.862275
C460    C    0.403333    0.662667    0.936700
H383    H    0.423333    0.647333    0.849925
C461    C    0.373333    0.633333    0.918100
C462    C    0.432333    0.366333    0.750800
H384    H    0.433333    0.374000    0.787775
H385    H    0.380000    0.660000    0.759025
O155    O    0.518667    0.447300    0.960475
O156    O    0.552133    0.457967    0.776025
C463    C    0.562933    0.507300    0.912775
C464    C    0.607200    0.512033    0.981400
C465    C    0.631833    0.538467    0.955975
H386    H    0.660267    0.549933    0.971600
H387    H    0.640200    0.521200    0.792025
N155    N    0.620867    0.550900    0.913425
N156    N    0.617133    0.505133    0.776225
C466    C    0.572333    0.494933    0.958200
H388    H    0.597633    0.487133    0.794400
C467    C    0.547067    0.466400    0.982125
C468    C    0.587067    0.535500    0.891525
H389    H    0.579533    0.546667    0.856900
H390    H    0.535767    0.496700    0.893825
Ni40    Ni    0.666233    0.583833    0.886475
O157    O    0.510000    0.376667    0.817250
O158    O    0.543333    0.380000    0.751100
C469    C    0.569667    0.660000    0.858950
C470    C    0.601000    0.654000    0.781925
C471    C    0.626667    0.626667    0.801150
H391    H    0.650000    0.610000    0.778475
H392    H    0.632667    0.653333    0.969300
N157    N    0.626667    0.616667    0.846900
N158    N    0.607000    0.664333    0.987275
C472    C    0.570000    0.337333    0.811700
H393    H    0.590000    0.352667    0.974925
C473    C    0.540000    0.366667    0.793100
C474    C    0.599000    0.633667    0.875800
H394    H    0.600000    0.626000    0.912775
H395    H    0.546667    0.340000    0.884025
O159    O    0.352000    0.552700    0.835475
O160    O    0.385467    0.542033    0.901025
C475    C    0.396267    0.492700    0.787775
C476    C    0.440533    0.487967    0.856400
C477    C    0.465167    0.461533    0.830975
H396    H    0.493600    0.450067    0.846600
H397    H    0.473533    0.478800    0.917025
N159    N    0.454200    0.449100    0.788425
N160    N    0.450467    0.494867    0.901225
C478    C    0.405667    0.505067    0.833200
H398    H    0.430967    0.512867    0.919400
C479    C    0.380400    0.533600    0.857125
C480    C    0.420400    0.464500    0.766525
H399    H    0.412867    0.453333    0.981900
H400    H    0.369100    0.503300    0.768825
Ni41    Ni    0.499567    0.749500    0.011475
O161    O    0.343333    0.956667    0.192250
O162    O    0.376667    0.953333    0.126100
C481    C    0.403000    0.673333    0.233950
C482    C    0.434333    0.679333    0.156925
C483    C    0.460000    0.706667    0.176150
H401    H    0.483333    0.723333    0.153475
H402    H    0.466000    0.680000    0.094300
N161    N    0.460000    0.716667    0.221900
N162    N    0.440333    0.669000    0.112275
C484    C    0.403333    0.996000    0.186700
H403    H    0.423333    0.980667    0.099925
C485    C    0.373333    0.966667    0.168100
C486    C    0.432333    0.699667    0.000800
H404    H    0.433333    0.707333    0.037775
H405    H    0.380000    0.993333    0.009025
O163    O    0.518667    0.780633    0.210475
O164    O    0.552133    0.791300    0.026025
C487    C    0.562933    0.840633    0.162775
C488    C    0.607200    0.845367    0.231400
C489    C    0.631833    0.871800    0.205975
H406    H    0.660267    0.883267    0.221600
H407    H    0.640200    0.854533    0.042025
N163    N    0.620867    0.884233    0.163425
N164    N    0.617133    0.838467    0.026225
C490    C    0.572333    0.828267    0.208200
H408    H    0.597633    0.820467    0.044400
C491    C    0.547067    0.799733    0.232125
C492    C    0.587067    0.868833    0.141525
H409    H    0.579533    0.880000    0.106900
H410    H    0.535767    0.830033    0.143825
Ni42    Ni    0.666233    0.917167    0.136475
O165    O    0.510000    0.710000    0.067250
O166    O    0.543333    0.713333    0.001100
C493    C    0.569667    0.993333    0.108950
C494    C    0.601000    0.987333    0.031925
C495    C    0.626667    0.960000    0.051150
H411    H    0.650000    0.943333    0.028475
H412    H    0.632667    0.986667    0.219300
N165    N    0.626667    0.950000    0.096900
N166    N    0.607000    0.997667    0.237275
C496    C    0.570000    0.670667    0.061700
H413    H    0.590000    0.686000    0.224925
C497    C    0.540000    0.700000    0.043100
C498    C    0.599000    0.967000    0.125800
H414    H    0.600000    0.959333    0.162775
H415    H    0.546667    0.673333    0.134025
O167    O    0.352000    0.886033    0.085475
O168    O    0.385467    0.875367    0.151025
C499    C    0.396267    0.826033    0.037775
C500    C    0.440533    0.821300    0.106400
C501    C    0.465167    0.794867    0.080975
H416    H    0.493600    0.783400    0.096600
H417    H    0.473533    0.812133    0.167025
N167    N    0.454200    0.782433    0.038425
N168    N    0.450467    0.828200    0.151225
C502    C    0.405667    0.838400    0.083200
H418    H    0.430967    0.846200    0.169400
C503    C    0.380400    0.866933    0.107125
C504    C    0.420400    0.797833    0.016525
H419    H    0.412867    0.786667    0.231900
H420    H    0.369100    0.836633    0.018825
Ni43    Ni    0.499567    0.749500    0.261475
O169    O    0.343333    0.956667    0.442250
O170    O    0.376667    0.953333    0.376100
C505    C    0.403000    0.673333    0.483950
C506    C    0.434333    0.679333    0.406925
C507    C    0.460000    0.706667    0.426150
H421    H    0.483333    0.723333    0.403475
H422    H    0.466000    0.680000    0.344300
N169    N    0.460000    0.716667    0.471900
N170    N    0.440333    0.669000    0.362275
C508    C    0.403333    0.996000    0.436700
H423    H    0.423333    0.980667    0.349925
C509    C    0.373333    0.966667    0.418100
C510    C    0.432333    0.699667    0.250800
H424    H    0.433333    0.707333    0.287775
H425    H    0.380000    0.993333    0.259025
O171    O    0.518667    0.780633    0.460475
O172    O    0.552133    0.791300    0.276025
C511    C    0.562933    0.840633    0.412775
C512    C    0.607200    0.845367    0.481400
C513    C    0.631833    0.871800    0.455975
H426    H    0.660267    0.883267    0.471600
H427    H    0.640200    0.854533    0.292025
N171    N    0.620867    0.884233    0.413425
N172    N    0.617133    0.838467    0.276225
C514    C    0.572333    0.828267    0.458200
H428    H    0.597633    0.820467    0.294400
C515    C    0.547067    0.799733    0.482125
C516    C    0.587067    0.868833    0.391525
H429    H    0.579533    0.880000    0.356900
H430    H    0.535767    0.830033    0.393825
Ni44    Ni    0.666233    0.917167    0.386475
O173    O    0.510000    0.710000    0.317250
O174    O    0.543333    0.713333    0.251100
C517    C    0.569667    0.993333    0.358950
C518    C    0.601000    0.987333    0.281925
C519    C    0.626667    0.960000    0.301150
H431    H    0.650000    0.943333    0.278475
H432    H    0.632667    0.986667    0.469300
N173    N    0.626667    0.950000    0.346900
N174    N    0.607000    0.997667    0.487275
C520    C    0.570000    0.670667    0.311700
H433    H    0.590000    0.686000    0.474925
C521    C    0.540000    0.700000    0.293100
C522    C    0.599000    0.967000    0.375800
H434    H    0.600000    0.959333    0.412775
H435    H    0.546667    0.673333    0.384025
O175    O    0.352000    0.886033    0.335475
O176    O    0.385467    0.875367    0.401025
C523    C    0.396267    0.826033    0.287775
C524    C    0.440533    0.821300    0.356400
C525    C    0.465167    0.794867    0.330975
H436    H    0.493600    0.783400    0.346600
H437    H    0.473533    0.812133    0.417025
N175    N    0.454200    0.782433    0.288425
N176    N    0.450467    0.828200    0.401225
C526    C    0.405667    0.838400    0.333200
H438    H    0.430967    0.846200    0.419400
C527    C    0.380400    0.866933    0.357125
C528    C    0.420400    0.797833    0.266525
H439    H    0.412867    0.786667    0.481900
H440    H    0.369100    0.836633    0.268825
Ni45    Ni    0.499567    0.749500    0.511475
O177    O    0.343333    0.956667    0.692250
O178    O    0.376667    0.953333    0.626100
C529    C    0.403000    0.673333    0.733950
C530    C    0.434333    0.679333    0.656925
C531    C    0.460000    0.706667    0.676150
H441    H    0.483333    0.723333    0.653475
H442    H    0.466000    0.680000    0.594300
N177    N    0.460000    0.716667    0.721900
N178    N    0.440333    0.669000    0.612275
C532    C    0.403333    0.996000    0.686700
H443    H    0.423333    0.980667    0.599925
C533    C    0.373333    0.966667    0.668100
C534    C    0.432333    0.699667    0.500800
H444    H    0.433333    0.707333    0.537775
H445    H    0.380000    0.993333    0.509025
O179    O    0.518667    0.780633    0.710475
O180    O    0.552133    0.791300    0.526025
C535    C    0.562933    0.840633    0.662775
C536    C    0.607200    0.845367    0.731400
C537    C    0.631833    0.871800    0.705975
H446    H    0.660267    0.883267    0.721600
H447    H    0.640200    0.854533    0.542025
N179    N    0.620867    0.884233    0.663425
N180    N    0.617133    0.838467    0.526225
C538    C    0.572333    0.828267    0.708200
H448    H    0.597633    0.820467    0.544400
C539    C    0.547067    0.799733    0.732125
C540    C    0.587067    0.868833    0.641525
H449    H    0.579533    0.880000    0.606900
H450    H    0.535767    0.830033    0.643825
Ni46    Ni    0.666233    0.917167    0.636475
O181    O    0.510000    0.710000    0.567250
O182    O    0.543333    0.713333    0.501100
C541    C    0.569667    0.993333    0.608950
C542    C    0.601000    0.987333    0.531925
C543    C    0.626667    0.960000    0.551150
H451    H    0.650000    0.943333    0.528475
H452    H    0.632667    0.986667    0.719300
N181    N    0.626667    0.950000    0.596900
N182    N    0.607000    0.997667    0.737275
C544    C    0.570000    0.670667    0.561700
H453    H    0.590000    0.686000    0.724925
C545    C    0.540000    0.700000    0.543100
C546    C    0.599000    0.967000    0.625800
H454    H    0.600000    0.959333    0.662775
H455    H    0.546667    0.673333    0.634025
O183    O    0.352000    0.886033    0.585475
O184    O    0.385467    0.875367    0.651025
C547    C    0.396267    0.826033    0.537775
C548    C    0.440533    0.821300    0.606400
C549    C    0.465167    0.794867    0.580975
H456    H    0.493600    0.783400    0.596600
H457    H    0.473533    0.812133    0.667025
N183    N    0.454200    0.782433    0.538425
N184    N    0.450467    0.828200    0.651225
C550    C    0.405667    0.838400    0.583200
H458    H    0.430967    0.846200    0.669400
C551    C    0.380400    0.866933    0.607125
C552    C    0.420400    0.797833    0.516525
H459    H    0.412867    0.786667    0.731900
H460    H    0.369100    0.836633    0.518825
Ni47    Ni    0.499567    0.749500    0.761475
O185    O    0.343333    0.956667    0.942250
O186    O    0.376667    0.953333    0.876100
C553    C    0.403000    0.673333    0.983950
C554    C    0.434333    0.679333    0.906925
C555    C    0.460000    0.706667    0.926150
H461    H    0.483333    0.723333    0.903475
H462    H    0.466000    0.680000    0.844300
N185    N    0.460000    0.716667    0.971900
N186    N    0.440333    0.669000    0.862275
C556    C    0.403333    0.996000    0.936700
H463    H    0.423333    0.980667    0.849925
C557    C    0.373333    0.966667    0.918100
C558    C    0.432333    0.699667    0.750800
H464    H    0.433333    0.707333    0.787775
H465    H    0.380000    0.993333    0.759025
O187    O    0.518667    0.780633    0.960475
O188    O    0.552133    0.791300    0.776025
C559    C    0.562933    0.840633    0.912775
C560    C    0.607200    0.845367    0.981400
C561    C    0.631833    0.871800    0.955975
H466    H    0.660267    0.883267    0.971600
H467    H    0.640200    0.854533    0.792025
N187    N    0.620867    0.884233    0.913425
N188    N    0.617133    0.838467    0.776225
C562    C    0.572333    0.828267    0.958200
H468    H    0.597633    0.820467    0.794400
C563    C    0.547067    0.799733    0.982125
C564    C    0.587067    0.868833    0.891525
H469    H    0.579533    0.880000    0.856900
H470    H    0.535767    0.830033    0.893825
Ni48    Ni    0.666233    0.917167    0.886475
O189    O    0.510000    0.710000    0.817250
O190    O    0.543333    0.713333    0.751100
C565    C    0.569667    0.993333    0.858950
C566    C    0.601000    0.987333    0.781925
C567    C    0.626667    0.960000    0.801150
H471    H    0.650000    0.943333    0.778475
H472    H    0.632667    0.986667    0.969300
N189    N    0.626667    0.950000    0.846900
N190    N    0.607000    0.997667    0.987275
C568    C    0.570000    0.670667    0.811700
H473    H    0.590000    0.686000    0.974925
C569    C    0.540000    0.700000    0.793100
C570    C    0.599000    0.967000    0.875800
H474    H    0.600000    0.959333    0.912775
H475    H    0.546667    0.673333    0.884025
O191    O    0.352000    0.886033    0.835475
O192    O    0.385467    0.875367    0.901025
C571    C    0.396267    0.826033    0.787775
C572    C    0.440533    0.821300    0.856400
C573    C    0.465167    0.794867    0.830975
H476    H    0.493600    0.783400    0.846600
H477    H    0.473533    0.812133    0.917025
N191    N    0.454200    0.782433    0.788425
N192    N    0.450467    0.828200    0.901225
C574    C    0.405667    0.838400    0.833200
H478    H    0.430967    0.846200    0.919400
C575    C    0.380400    0.866933    0.857125
C576    C    0.420400    0.797833    0.766525
H479    H    0.412867    0.786667    0.981900
H480    H    0.369100    0.836633    0.768825
Ni49    Ni    0.832900    0.082833    0.011475
O193    O    0.676667    0.290000    0.192250
O194    O    0.710000    0.286667    0.126100
C577    C    0.736333    0.006667    0.233950
C578    C    0.767667    0.012667    0.156925
C579    C    0.793333    0.040000    0.176150
H481    H    0.816667    0.056667    0.153475
H482    H    0.799333    0.013333    0.094300
N193    N    0.793333    0.050000    0.221900
N194    N    0.773667    0.002333    0.112275
C580    C    0.736667    0.329333    0.186700
H483    H    0.756667    0.314000    0.099925
C581    C    0.706667    0.300000    0.168100
C582    C    0.765667    0.033000    0.000800
H484    H    0.766667    0.040667    0.037775
H485    H    0.713333    0.326667    0.009025
O195    O    0.852000    0.113967    0.210475
O196    O    0.885467    0.124633    0.026025
C583    C    0.896267    0.173967    0.162775
C584    C    0.940533    0.178700    0.231400
C585    C    0.965167    0.205133    0.205975
H486    H    0.993600    0.216600    0.221600
H487    H    0.973533    0.187867    0.042025
N195    N    0.954200    0.217567    0.163425
N196    N    0.950467    0.171800    0.026225
C586    C    0.905667    0.161600    0.208200
H488    H    0.930967    0.153800    0.044400
C587    C    0.880400    0.133067    0.232125
C588    C    0.920400    0.202167    0.141525
H489    H    0.912867    0.213333    0.106900
H490    H    0.869100    0.163367    0.143825
Ni50    Ni    0.999567    0.250500    0.136475
O197    O    0.843333    0.043333    0.067250
O198    O    0.876667    0.046667    0.001100
C589    C    0.903000    0.326667    0.108950
C590    C    0.934333    0.320667    0.031925
C591    C    0.960000    0.293333    0.051150
H491    H    0.983333    0.276667    0.028475
H492    H    0.966000    0.320000    0.219300
N197    N    0.960000    0.283333    0.096900
N198    N    0.940333    0.331000    0.237275
C592    C    0.903333    0.004000    0.061700
H493    H    0.923333    0.019333    0.224925
C593    C    0.873333    0.033333    0.043100
C594    C    0.932333    0.300333    0.125800
H494    H    0.933333    0.292667    0.162775
H495    H    0.880000    0.006667    0.134025
O199    O    0.685333    0.219367    0.085475
O200    O    0.718800    0.208700    0.151025
C595    C    0.729600    0.159367    0.037775
C596    C    0.773867    0.154633    0.106400
C597    C    0.798500    0.128200    0.080975
H496    H    0.826933    0.116733    0.096600
H497    H    0.806867    0.145467    0.167025
N199    N    0.787533    0.115767    0.038425
N200    N    0.783800    0.161533    0.151225
C598    C    0.739000    0.171733    0.083200
H498    H    0.764300    0.179533    0.169400
C599    C    0.713733    0.200267    0.107125
C600    C    0.753733    0.131167    0.016525
H499    H    0.746200    0.120000    0.231900
H500    H    0.702433    0.169967    0.018825
Ni51    Ni    0.832900    0.082833    0.261475
O201    O    0.676667    0.290000    0.442250
O202    O    0.710000    0.286667    0.376100
C601    C    0.736333    0.006667    0.483950
C602    C    0.767667    0.012667    0.406925
C603    C    0.793333    0.040000    0.426150
H501    H    0.816667    0.056667    0.403475
H502    H    0.799333    0.013333    0.344300
N201    N    0.793333    0.050000    0.471900
N202    N    0.773667    0.002333    0.362275
C604    C    0.736667    0.329333    0.436700
H503    H    0.756667    0.314000    0.349925
C605    C    0.706667    0.300000    0.418100
C606    C    0.765667    0.033000    0.250800
H504    H    0.766667    0.040667    0.287775
H505    H    0.713333    0.326667    0.259025
O203    O    0.852000    0.113967    0.460475
O204    O    0.885467    0.124633    0.276025
C607    C    0.896267    0.173967    0.412775
C608    C    0.940533    0.178700    0.481400
C609    C    0.965167    0.205133    0.455975
H506    H    0.993600    0.216600    0.471600
H507    H    0.973533    0.187867    0.292025
N203    N    0.954200    0.217567    0.413425
N204    N    0.950467    0.171800    0.276225
C610    C    0.905667    0.161600    0.458200
H508    H    0.930967    0.153800    0.294400
C611    C    0.880400    0.133067    0.482125
C612    C    0.920400    0.202167    0.391525
H509    H    0.912867    0.213333    0.356900
H510    H    0.869100    0.163367    0.393825
Ni52    Ni    0.999567    0.250500    0.386475
O205    O    0.843333    0.043333    0.317250
O206    O    0.876667    0.046667    0.251100
C613    C    0.903000    0.326667    0.358950
C614    C    0.934333    0.320667    0.281925
C615    C    0.960000    0.293333    0.301150
H511    H    0.983333    0.276667    0.278475
H512    H    0.966000    0.320000    0.469300
N205    N    0.960000    0.283333    0.346900
N206    N    0.940333    0.331000    0.487275
C616    C    0.903333    0.004000    0.311700
H513    H    0.923333    0.019333    0.474925
C617    C    0.873333    0.033333    0.293100
C618    C    0.932333    0.300333    0.375800
H514    H    0.933333    0.292667    0.412775
H515    H    0.880000    0.006667    0.384025
O207    O    0.685333    0.219367    0.335475
O208    O    0.718800    0.208700    0.401025
C619    C    0.729600    0.159367    0.287775
C620    C    0.773867    0.154633    0.356400
C621    C    0.798500    0.128200    0.330975
H516    H    0.826933    0.116733    0.346600
H517    H    0.806867    0.145467    0.417025
N207    N    0.787533    0.115767    0.288425
N208    N    0.783800    0.161533    0.401225
C622    C    0.739000    0.171733    0.333200
H518    H    0.764300    0.179533    0.419400
C623    C    0.713733    0.200267    0.357125
C624    C    0.753733    0.131167    0.266525
H519    H    0.746200    0.120000    0.481900
H520    H    0.702433    0.169967    0.268825
Ni53    Ni    0.832900    0.082833    0.511475
O209    O    0.676667    0.290000    0.692250
O210    O    0.710000    0.286667    0.626100
C625    C    0.736333    0.006667    0.733950
C626    C    0.767667    0.012667    0.656925
C627    C    0.793333    0.040000    0.676150
H521    H    0.816667    0.056667    0.653475
H522    H    0.799333    0.013333    0.594300
N209    N    0.793333    0.050000    0.721900
N210    N    0.773667    0.002333    0.612275
C628    C    0.736667    0.329333    0.686700
H523    H    0.756667    0.314000    0.599925
C629    C    0.706667    0.300000    0.668100
C630    C    0.765667    0.033000    0.500800
H524    H    0.766667    0.040667    0.537775
H525    H    0.713333    0.326667    0.509025
O211    O    0.852000    0.113967    0.710475
O212    O    0.885467    0.124633    0.526025
C631    C    0.896267    0.173967    0.662775
C632    C    0.940533    0.178700    0.731400
C633    C    0.965167    0.205133    0.705975
H526    H    0.993600    0.216600    0.721600
H527    H    0.973533    0.187867    0.542025
N211    N    0.954200    0.217567    0.663425
N212    N    0.950467    0.171800    0.526225
C634    C    0.905667    0.161600    0.708200
H528    H    0.930967    0.153800    0.544400
C635    C    0.880400    0.133067    0.732125
C636    C    0.920400    0.202167    0.641525
H529    H    0.912867    0.213333    0.606900
H530    H    0.869100    0.163367    0.643825
Ni54    Ni    0.999567    0.250500    0.636475
O213    O    0.843333    0.043333    0.567250
O214    O    0.876667    0.046667    0.501100
C637    C    0.903000    0.326667    0.608950
C638    C    0.934333    0.320667    0.531925
C639    C    0.960000    0.293333    0.551150
H531    H    0.983333    0.276667    0.528475
H532    H    0.966000    0.320000    0.719300
N213    N    0.960000    0.283333    0.596900
N214    N    0.940333    0.331000    0.737275
C640    C    0.903333    0.004000    0.561700
H533    H    0.923333    0.019333    0.724925
C641    C    0.873333    0.033333    0.543100
C642    C    0.932333    0.300333    0.625800
H534    H    0.933333    0.292667    0.662775
H535    H    0.880000    0.006667    0.634025
O215    O    0.685333    0.219367    0.585475
O216    O    0.718800    0.208700    0.651025
C643    C    0.729600    0.159367    0.537775
C644    C    0.773867    0.154633    0.606400
C645    C    0.798500    0.128200    0.580975
H536    H    0.826933    0.116733    0.596600
H537    H    0.806867    0.145467    0.667025
N215    N    0.787533    0.115767    0.538425
N216    N    0.783800    0.161533    0.651225
C646    C    0.739000    0.171733    0.583200
H538    H    0.764300    0.179533    0.669400
C647    C    0.713733    0.200267    0.607125
C648    C    0.753733    0.131167    0.516525
H539    H    0.746200    0.120000    0.731900
H540    H    0.702433    0.169967    0.518825
Ni55    Ni    0.832900    0.082833    0.761475
O217    O    0.676667    0.290000    0.942250
O218    O    0.710000    0.286667    0.876100
C649    C    0.736333    0.006667    0.983950
C650    C    0.767667    0.012667    0.906925
C651    C    0.793333    0.040000    0.926150
H541    H    0.816667    0.056667    0.903475
H542    H    0.799333    0.013333    0.844300
N217    N    0.793333    0.050000    0.971900
N218    N    0.773667    0.002333    0.862275
C652    C    0.736667    0.329333    0.936700
H543    H    0.756667    0.314000    0.849925
C653    C    0.706667    0.300000    0.918100
C654    C    0.765667    0.033000    0.750800
H544    H    0.766667    0.040667    0.787775
H545    H    0.713333    0.326667    0.759025
O219    O    0.852000    0.113967    0.960475
O220    O    0.885467    0.124633    0.776025
C655    C    0.896267    0.173967    0.912775
C656    C    0.940533    0.178700    0.981400
C657    C    0.965167    0.205133    0.955975
H546    H    0.993600    0.216600    0.971600
H547    H    0.973533    0.187867    0.792025
N219    N    0.954200    0.217567    0.913425
N220    N    0.950467    0.171800    0.776225
C658    C    0.905667    0.161600    0.958200
H548    H    0.930967    0.153800    0.794400
C659    C    0.880400    0.133067    0.982125
C660    C    0.920400    0.202167    0.891525
H549    H    0.912867    0.213333    0.856900
H550    H    0.869100    0.163367    0.893825
Ni56    Ni    0.999567    0.250500    0.886475
O221    O    0.843333    0.043333    0.817250
O222    O    0.876667    0.046667    0.751100
C661    C    0.903000    0.326667    0.858950
C662    C    0.934333    0.320667    0.781925
C663    C    0.960000    0.293333    0.801150
H551    H    0.983333    0.276667    0.778475
H552    H    0.966000    0.320000    0.969300
N221    N    0.960000    0.283333    0.846900
N222    N    0.940333    0.331000    0.987275
C664    C    0.903333    0.004000    0.811700
H553    H    0.923333    0.019333    0.974925
C665    C    0.873333    0.033333    0.793100
C666    C    0.932333    0.300333    0.875800
H554    H    0.933333    0.292667    0.912775
H555    H    0.880000    0.006667    0.884025
O223    O    0.685333    0.219367    0.835475
O224    O    0.718800    0.208700    0.901025
C667    C    0.729600    0.159367    0.787775
C668    C    0.773867    0.154633    0.856400
C669    C    0.798500    0.128200    0.830975
H556    H    0.826933    0.116733    0.846600
H557    H    0.806867    0.145467    0.917025
N223    N    0.787533    0.115767    0.788425
N224    N    0.783800    0.161533    0.901225
C670    C    0.739000    0.171733    0.833200
H558    H    0.764300    0.179533    0.919400
C671    C    0.713733    0.200267    0.857125
C672    C    0.753733    0.131167    0.766525
H559    H    0.746200    0.120000    0.981900
H560    H    0.702433    0.169967    0.768825
Ni57    Ni    0.832900    0.416167    0.011475
O225    O    0.676667    0.623333    0.192250
O226    O    0.710000    0.620000    0.126100
C673    C    0.736333    0.340000    0.233950
C674    C    0.767667    0.346000    0.156925
C675    C    0.793333    0.373333    0.176150
H561    H    0.816667    0.390000    0.153475
H562    H    0.799333    0.346667    0.094300
N225    N    0.793333    0.383333    0.221900
N226    N    0.773667    0.335667    0.112275
C676    C    0.736667    0.662667    0.186700
H563    H    0.756667    0.647333    0.099925
C677    C    0.706667    0.633333    0.168100
C678    C    0.765667    0.366333    0.000800
H564    H    0.766667    0.374000    0.037775
H565    H    0.713333    0.660000    0.009025
O227    O    0.852000    0.447300    0.210475
O228    O    0.885467    0.457967    0.026025
C679    C    0.896267    0.507300    0.162775
C680    C    0.940533    0.512033    0.231400
C681    C    0.965167    0.538467    0.205975
H566    H    0.993600    0.549933    0.221600
H567    H    0.973533    0.521200    0.042025
N227    N    0.954200    0.550900    0.163425
N228    N    0.950467    0.505133    0.026225
C682    C    0.905667    0.494933    0.208200
H568    H    0.930967    0.487133    0.044400
C683    C    0.880400    0.466400    0.232125
C684    C    0.920400    0.535500    0.141525
H569    H    0.912867    0.546667    0.106900
H570    H    0.869100    0.496700    0.143825
Ni58    Ni    0.999567    0.583833    0.136475
O229    O    0.843333    0.376667    0.067250
O230    O    0.876667    0.380000    0.001100
C685    C    0.903000    0.660000    0.108950
C686    C    0.934333    0.654000    0.031925
C687    C    0.960000    0.626667    0.051150
H571    H    0.983333    0.610000    0.028475
H572    H    0.966000    0.653333    0.219300
N229    N    0.960000    0.616667    0.096900
N230    N    0.940333    0.664333    0.237275
C688    C    0.903333    0.337333    0.061700
H573    H    0.923333    0.352667    0.224925
C689    C    0.873333    0.366667    0.043100
C690    C    0.932333    0.633667    0.125800
H574    H    0.933333    0.626000    0.162775
H575    H    0.880000    0.340000    0.134025
O231    O    0.685333    0.552700    0.085475
O232    O    0.718800    0.542033    0.151025
C691    C    0.729600    0.492700    0.037775
C692    C    0.773867    0.487967    0.106400
C693    C    0.798500    0.461533    0.080975
H576    H    0.826933    0.450067    0.096600
H577    H    0.806867    0.478800    0.167025
N231    N    0.787533    0.449100    0.038425
N232    N    0.783800    0.494867    0.151225
C694    C    0.739000    0.505067    0.083200
H578    H    0.764300    0.512867    0.169400
C695    C    0.713733    0.533600    0.107125
C696    C    0.753733    0.464500    0.016525
H579    H    0.746200    0.453333    0.231900
H580    H    0.702433    0.503300    0.018825
Ni59    Ni    0.832900    0.416167    0.261475
O233    O    0.676667    0.623333    0.442250
O234    O    0.710000    0.620000    0.376100
C697    C    0.736333    0.340000    0.483950
C698    C    0.767667    0.346000    0.406925
C699    C    0.793333    0.373333    0.426150
H581    H    0.816667    0.390000    0.403475
H582    H    0.799333    0.346667    0.344300
N233    N    0.793333    0.383333    0.471900
N234    N    0.773667    0.335667    0.362275
C700    C    0.736667    0.662667    0.436700
H583    H    0.756667    0.647333    0.349925
C701    C    0.706667    0.633333    0.418100
C702    C    0.765667    0.366333    0.250800
H584    H    0.766667    0.374000    0.287775
H585    H    0.713333    0.660000    0.259025
O235    O    0.852000    0.447300    0.460475
O236    O    0.885467    0.457967    0.276025
C703    C    0.896267    0.507300    0.412775
C704    C    0.940533    0.512033    0.481400
C705    C    0.965167    0.538467    0.455975
H586    H    0.993600    0.549933    0.471600
H587    H    0.973533    0.521200    0.292025
N235    N    0.954200    0.550900    0.413425
N236    N    0.950467    0.505133    0.276225
C706    C    0.905667    0.494933    0.458200
H588    H    0.930967    0.487133    0.294400
C707    C    0.880400    0.466400    0.482125
C708    C    0.920400    0.535500    0.391525
H589    H    0.912867    0.546667    0.356900
H590    H    0.869100    0.496700    0.393825
Ni60    Ni    0.999567    0.583833    0.386475
O237    O    0.843333    0.376667    0.317250
O238    O    0.876667    0.380000    0.251100
C709    C    0.903000    0.660000    0.358950
C710    C    0.934333    0.654000    0.281925
C711    C    0.960000    0.626667    0.301150
H591    H    0.983333    0.610000    0.278475
H592    H    0.966000    0.653333    0.469300
N237    N    0.960000    0.616667    0.346900
N238    N    0.940333    0.664333    0.487275
C712    C    0.903333    0.337333    0.311700
H593    H    0.923333    0.352667    0.474925
C713    C    0.873333    0.366667    0.293100
C714    C    0.932333    0.633667    0.375800
H594    H    0.933333    0.626000    0.412775
H595    H    0.880000    0.340000    0.384025
O239    O    0.685333    0.552700    0.335475
O240    O    0.718800    0.542033    0.401025
C715    C    0.729600    0.492700    0.287775
C716    C    0.773867    0.487967    0.356400
C717    C    0.798500    0.461533    0.330975
H596    H    0.826933    0.450067    0.346600
H597    H    0.806867    0.478800    0.417025
N239    N    0.787533    0.449100    0.288425
N240    N    0.783800    0.494867    0.401225
C718    C    0.739000    0.505067    0.333200
H598    H    0.764300    0.512867    0.419400
C719    C    0.713733    0.533600    0.357125
C720    C    0.753733    0.464500    0.266525
H599    H    0.746200    0.453333    0.481900
H600    H    0.702433    0.503300    0.268825
Ni61    Ni    0.832900    0.416167    0.511475
O241    O    0.676667    0.623333    0.692250
O242    O    0.710000    0.620000    0.626100
C721    C    0.736333    0.340000    0.733950
C722    C    0.767667    0.346000    0.656925
C723    C    0.793333    0.373333    0.676150
H601    H    0.816667    0.390000    0.653475
H602    H    0.799333    0.346667    0.594300
N241    N    0.793333    0.383333    0.721900
N242    N    0.773667    0.335667    0.612275
C724    C    0.736667    0.662667    0.686700
H603    H    0.756667    0.647333    0.599925
C725    C    0.706667    0.633333    0.668100
C726    C    0.765667    0.366333    0.500800
H604    H    0.766667    0.374000    0.537775
H605    H    0.713333    0.660000    0.509025
O243    O    0.852000    0.447300    0.710475
O244    O    0.885467    0.457967    0.526025
C727    C    0.896267    0.507300    0.662775
C728    C    0.940533    0.512033    0.731400
C729    C    0.965167    0.538467    0.705975
H606    H    0.993600    0.549933    0.721600
H607    H    0.973533    0.521200    0.542025
N243    N    0.954200    0.550900    0.663425
N244    N    0.950467    0.505133    0.526225
C730    C    0.905667    0.494933    0.708200
H608    H    0.930967    0.487133    0.544400
C731    C    0.880400    0.466400    0.732125
C732    C    0.920400    0.535500    0.641525
H609    H    0.912867    0.546667    0.606900
H610    H    0.869100    0.496700    0.643825
Ni62    Ni    0.999567    0.583833    0.636475
O245    O    0.843333    0.376667    0.567250
O246    O    0.876667    0.380000    0.501100
C733    C    0.903000    0.660000    0.608950
C734    C    0.934333    0.654000    0.531925
C735    C    0.960000    0.626667    0.551150
H611    H    0.983333    0.610000    0.528475
H612    H    0.966000    0.653333    0.719300
N245    N    0.960000    0.616667    0.596900
N246    N    0.940333    0.664333    0.737275
C736    C    0.903333    0.337333    0.561700
H613    H    0.923333    0.352667    0.724925
C737    C    0.873333    0.366667    0.543100
C738    C    0.932333    0.633667    0.625800
H614    H    0.933333    0.626000    0.662775
H615    H    0.880000    0.340000    0.634025
O247    O    0.685333    0.552700    0.585475
O248    O    0.718800    0.542033    0.651025
C739    C    0.729600    0.492700    0.537775
C740    C    0.773867    0.487967    0.606400
C741    C    0.798500    0.461533    0.580975
H616    H    0.826933    0.450067    0.596600
H617    H    0.806867    0.478800    0.667025
N247    N    0.787533    0.449100    0.538425
N248    N    0.783800    0.494867    0.651225
C742    C    0.739000    0.505067    0.583200
H618    H    0.764300    0.512867    0.669400
C743    C    0.713733    0.533600    0.607125
C744    C    0.753733    0.464500    0.516525
H619    H    0.746200    0.453333    0.731900
H620    H    0.702433    0.503300    0.518825
Ni63    Ni    0.832900    0.416167    0.761475
O249    O    0.676667    0.623333    0.942250
O250    O    0.710000    0.620000    0.876100
C745    C    0.736333    0.340000    0.983950
C746    C    0.767667    0.346000    0.906925
C747    C    0.793333    0.373333    0.926150
H621    H    0.816667    0.390000    0.903475
H622    H    0.799333    0.346667    0.844300
N249    N    0.793333    0.383333    0.971900
N250    N    0.773667    0.335667    0.862275
C748    C    0.736667    0.662667    0.936700
H623    H    0.756667    0.647333    0.849925
C749    C    0.706667    0.633333    0.918100
C750    C    0.765667    0.366333    0.750800
H624    H    0.766667    0.374000    0.787775
H625    H    0.713333    0.660000    0.759025
O251    O    0.852000    0.447300    0.960475
O252    O    0.885467    0.457967    0.776025
C751    C    0.896267    0.507300    0.912775
C752    C    0.940533    0.512033    0.981400
C753    C    0.965167    0.538467    0.955975
H626    H    0.993600    0.549933    0.971600
H627    H    0.973533    0.521200    0.792025
N251    N    0.954200    0.550900    0.913425
N252    N    0.950467    0.505133    0.776225
C754    C    0.905667    0.494933    0.958200
H628    H    0.930967    0.487133    0.794400
C755    C    0.880400    0.466400    0.982125
C756    C    0.920400    0.535500    0.891525
H629    H    0.912867    0.546667    0.856900
H630    H    0.869100    0.496700    0.893825
Ni64    Ni    0.999567    0.583833    0.886475
O253    O    0.843333    0.376667    0.817250
O254    O    0.876667    0.380000    0.751100
C757    C    0.903000    0.660000    0.858950
C758    C    0.934333    0.654000    0.781925
C759    C    0.960000    0.626667    0.801150
H631    H    0.983333    0.610000    0.778475
H632    H    0.966000    0.653333    0.969300
N253    N    0.960000    0.616667    0.846900
N254    N    0.940333    0.664333    0.987275
C760    C    0.903333    0.337333    0.811700
H633    H    0.923333    0.352667    0.974925
C761    C    0.873333    0.366667    0.793100
C762    C    0.932333    0.633667    0.875800
H634    H    0.933333    0.626000    0.912775
H635    H    0.880000    0.340000    0.884025
O255    O    0.685333    0.552700    0.835475
O256    O    0.718800    0.542033    0.901025
C763    C    0.729600    0.492700    0.787775
C764    C    0.773867    0.487967    0.856400
C765    C    0.798500    0.461533    0.830975
H636    H    0.826933    0.450067    0.846600
H637    H    0.806867    0.478800    0.917025
N255    N    0.787533    0.449100    0.788425
N256    N    0.783800    0.494867    0.901225
C766    C    0.739000    0.505067    0.833200
H638    H    0.764300    0.512867    0.919400
C767    C    0.713733    0.533600    0.857125
C768    C    0.753733    0.464500    0.766525
H639    H    0.746200    0.453333    0.981900
H640    H    0.702433    0.503300    0.768825
Ni65    Ni    0.832900    0.749500    0.011475
O257    O    0.676667    0.956667    0.192250
O258    O    0.710000    0.953333    0.126100
C769    C    0.736333    0.673333    0.233950
C770    C    0.767667    0.679333    0.156925
C771    C    0.793333    0.706667    0.176150
H641    H    0.816667    0.723333    0.153475
H642    H    0.799333    0.680000    0.094300
N257    N    0.793333    0.716667    0.221900
N258    N    0.773667    0.669000    0.112275
C772    C    0.736667    0.996000    0.186700
H643    H    0.756667    0.980667    0.099925
C773    C    0.706667    0.966667    0.168100
C774    C    0.765667    0.699667    0.000800
H644    H    0.766667    0.707333    0.037775
H645    H    0.713333    0.993333    0.009025
O259    O    0.852000    0.780633    0.210475
O260    O    0.885467    0.791300    0.026025
C775    C    0.896267    0.840633    0.162775
C776    C    0.940533    0.845367    0.231400
C777    C    0.965167    0.871800    0.205975
H646    H    0.993600    0.883267    0.221600
H647    H    0.973533    0.854533    0.042025
N259    N    0.954200    0.884233    0.163425
N260    N    0.950467    0.838467    0.026225
C778    C    0.905667    0.828267    0.208200
H648    H    0.930967    0.820467    0.044400
C779    C    0.880400    0.799733    0.232125
C780    C    0.920400    0.868833    0.141525
H649    H    0.912867    0.880000    0.106900
H650    H    0.869100    0.830033    0.143825
Ni66    Ni    0.999567    0.917167    0.136475
O261    O    0.843333    0.710000    0.067250
O262    O    0.876667    0.713333    0.001100
C781    C    0.903000    0.993333    0.108950
C782    C    0.934333    0.987333    0.031925
C783    C    0.960000    0.960000    0.051150
H651    H    0.983333    0.943333    0.028475
H652    H    0.966000    0.986667    0.219300
N261    N    0.960000    0.950000    0.096900
N262    N    0.940333    0.997667    0.237275
C784    C    0.903333    0.670667    0.061700
H653    H    0.923333    0.686000    0.224925
C785    C    0.873333    0.700000    0.043100
C786    C    0.932333    0.967000    0.125800
H654    H    0.933333    0.959333    0.162775
H655    H    0.880000    0.673333    0.134025
O263    O    0.685333    0.886033    0.085475
O264    O    0.718800    0.875367    0.151025
C787    C    0.729600    0.826033    0.037775
C788    C    0.773867    0.821300    0.106400
C789    C    0.798500    0.794867    0.080975
H656    H    0.826933    0.783400    0.096600
H657    H    0.806867    0.812133    0.167025
N263    N    0.787533    0.782433    0.038425
N264    N    0.783800    0.828200    0.151225
C790    C    0.739000    0.838400    0.083200
H658    H    0.764300    0.846200    0.169400
C791    C    0.713733    0.866933    0.107125
C792    C    0.753733    0.797833    0.016525
H659    H    0.746200    0.786667    0.231900
H660    H    0.702433    0.836633    0.018825
Ni67    Ni    0.832900    0.749500    0.261475
O265    O    0.676667    0.956667    0.442250
O266    O    0.710000    0.953333    0.376100
C793    C    0.736333    0.673333    0.483950
C794    C    0.767667    0.679333    0.406925
C795    C    0.793333    0.706667    0.426150
H661    H    0.816667    0.723333    0.403475
H662    H    0.799333    0.680000    0.344300
N265    N    0.793333    0.716667    0.471900
N266    N    0.773667    0.669000    0.362275
C796    C    0.736667    0.996000    0.436700
H663    H    0.756667    0.980667    0.349925
C797    C    0.706667    0.966667    0.418100
C798    C    0.765667    0.699667    0.250800
H664    H    0.766667    0.707333    0.287775
H665    H    0.713333    0.993333    0.259025
O267    O    0.852000    0.780633    0.460475
O268    O    0.885467    0.791300    0.276025
C799    C    0.896267    0.840633    0.412775
C800    C    0.940533    0.845367    0.481400
C801    C    0.965167    0.871800    0.455975
H666    H    0.993600    0.883267    0.471600
H667    H    0.973533    0.854533    0.292025
N267    N    0.954200    0.884233    0.413425
N268    N    0.950467    0.838467    0.276225
C802    C    0.905667    0.828267    0.458200
H668    H    0.930967    0.820467    0.294400
C803    C    0.880400    0.799733    0.482125
C804    C    0.920400    0.868833    0.391525
H669    H    0.912867    0.880000    0.356900
H670    H    0.869100    0.830033    0.393825
Ni68    Ni    0.999567    0.917167    0.386475
O269    O    0.843333    0.710000    0.317250
O270    O    0.876667    0.713333    0.251100
C805    C    0.903000    0.993333    0.358950
C806    C    0.934333    0.987333    0.281925
C807    C    0.960000    0.960000    0.301150
H671    H    0.983333    0.943333    0.278475
H672    H    0.966000    0.986667    0.469300
N269    N    0.960000    0.950000    0.346900
N270    N    0.940333    0.997667    0.487275
C808    C    0.903333    0.670667    0.311700
H673    H    0.923333    0.686000    0.474925
C809    C    0.873333    0.700000    0.293100
C810    C    0.932333    0.967000    0.375800
H674    H    0.933333    0.959333    0.412775
H675    H    0.880000    0.673333    0.384025
O271    O    0.685333    0.886033    0.335475
O272    O    0.718800    0.875367    0.401025
C811    C    0.729600    0.826033    0.287775
C812    C    0.773867    0.821300    0.356400
C813    C    0.798500    0.794867    0.330975
H676    H    0.826933    0.783400    0.346600
H677    H    0.806867    0.812133    0.417025
N271    N    0.787533    0.782433    0.288425
N272    N    0.783800    0.828200    0.401225
C814    C    0.739000    0.838400    0.333200
H678    H    0.764300    0.846200    0.419400
C815    C    0.713733    0.866933    0.357125
C816    C    0.753733    0.797833    0.266525
H679    H    0.746200    0.786667    0.481900
H680    H    0.702433    0.836633    0.268825
Ni69    Ni    0.832900    0.749500    0.511475
O273    O    0.676667    0.956667    0.692250
O274    O    0.710000    0.953333    0.626100
C817    C    0.736333    0.673333    0.733950
C818    C    0.767667    0.679333    0.656925
C819    C    0.793333    0.706667    0.676150
H681    H    0.816667    0.723333    0.653475
H682    H    0.799333    0.680000    0.594300
N273    N    0.793333    0.716667    0.721900
N274    N    0.773667    0.669000    0.612275
C820    C    0.736667    0.996000    0.686700
H683    H    0.756667    0.980667    0.599925
C821    C    0.706667    0.966667    0.668100
C822    C    0.765667    0.699667    0.500800
H684    H    0.766667    0.707333    0.537775
H685    H    0.713333    0.993333    0.509025
O275    O    0.852000    0.780633    0.710475
O276    O    0.885467    0.791300    0.526025
C823    C    0.896267    0.840633    0.662775
C824    C    0.940533    0.845367    0.731400
C825    C    0.965167    0.871800    0.705975
H686    H    0.993600    0.883267    0.721600
H687    H    0.973533    0.854533    0.542025
N275    N    0.954200    0.884233    0.663425
N276    N    0.950467    0.838467    0.526225
C826    C    0.905667    0.828267    0.708200
H688    H    0.930967    0.820467    0.544400
C827    C    0.880400    0.799733    0.732125
C828    C    0.920400    0.868833    0.641525
H689    H    0.912867    0.880000    0.606900
H690    H    0.869100    0.830033    0.643825
Ni70    Ni    0.999567    0.917167    0.636475
O277    O    0.843333    0.710000    0.567250
O278    O    0.876667    0.713333    0.501100
C829    C    0.903000    0.993333    0.608950
C830    C    0.934333    0.987333    0.531925
C831    C    0.960000    0.960000    0.551150
H691    H    0.983333    0.943333    0.528475
H692    H    0.966000    0.986667    0.719300
N277    N    0.960000    0.950000    0.596900
N278    N    0.940333    0.997667    0.737275
C832    C    0.903333    0.670667    0.561700
H693    H    0.923333    0.686000    0.724925
C833    C    0.873333    0.700000    0.543100
C834    C    0.932333    0.967000    0.625800
H694    H    0.933333    0.959333    0.662775
H695    H    0.880000    0.673333    0.634025
O279    O    0.685333    0.886033    0.585475
O280    O    0.718800    0.875367    0.651025
C835    C    0.729600    0.826033    0.537775
C836    C    0.773867    0.821300    0.606400
C837    C    0.798500    0.794867    0.580975
H696    H    0.826933    0.783400    0.596600
H697    H    0.806867    0.812133    0.667025
N279    N    0.787533    0.782433    0.538425
N280    N    0.783800    0.828200    0.651225
C838    C    0.739000    0.838400    0.583200
H698    H    0.764300    0.846200    0.669400
C839    C    0.713733    0.866933    0.607125
C840    C    0.753733    0.797833    0.516525
H699    H    0.746200    0.786667    0.731900
H700    H    0.702433    0.836633    0.518825
Ni71    Ni    0.832900    0.749500    0.761475
O281    O    0.676667    0.956667    0.942250
O282    O    0.710000    0.953333    0.876100
C841    C    0.736333    0.673333    0.983950
C842    C    0.767667    0.679333    0.906925
C843    C    0.793333    0.706667    0.926150
H701    H    0.816667    0.723333    0.903475
H702    H    0.799333    0.680000    0.844300
N281    N    0.793333    0.716667    0.971900
N282    N    0.773667    0.669000    0.862275
C844    C    0.736667    0.996000    0.936700
H703    H    0.756667    0.980667    0.849925
C845    C    0.706667    0.966667    0.918100
C846    C    0.765667    0.699667    0.750800
H704    H    0.766667    0.707333    0.787775
H705    H    0.713333    0.993333    0.759025
O283    O    0.852000    0.780633    0.960475
O284    O    0.885467    0.791300    0.776025
C847    C    0.896267    0.840633    0.912775
C848    C    0.940533    0.845367    0.981400
C849    C    0.965167    0.871800    0.955975
H706    H    0.993600    0.883267    0.971600
H707    H    0.973533    0.854533    0.792025
N283    N    0.954200    0.884233    0.913425
N284    N    0.950467    0.838467    0.776225
C850    C    0.905667    0.828267    0.958200
H708    H    0.930967    0.820467    0.794400
C851    C    0.880400    0.799733    0.982125
C852    C    0.920400    0.868833    0.891525
H709    H    0.912867    0.880000    0.856900
H710    H    0.869100    0.830033    0.893825
Ni72    Ni    0.999567    0.917167    0.886475
O285    O    0.843333    0.710000    0.817250
O286    O    0.876667    0.713333    0.751100
C853    C    0.903000    0.993333    0.858950
C854    C    0.934333    0.987333    0.781925
C855    C    0.960000    0.960000    0.801150
H711    H    0.983333    0.943333    0.778475
H712    H    0.966000    0.986667    0.969300
N285    N    0.960000    0.950000    0.846900
N286    N    0.940333    0.997667    0.987275
C856    C    0.903333    0.670667    0.811700
H713    H    0.923333    0.686000    0.974925
C857    C    0.873333    0.700000    0.793100
C858    C    0.932333    0.967000    0.875800
H714    H    0.933333    0.959333    0.912775
H715    H    0.880000    0.673333    0.884025
O287    O    0.685333    0.886033    0.835475
O288    O    0.718800    0.875367    0.901025
C859    C    0.729600    0.826033    0.787775
C860    C    0.773867    0.821300    0.856400
C861    C    0.798500    0.794867    0.830975
H716    H    0.826933    0.783400    0.846600
H717    H    0.806867    0.812133    0.917025
N287    N    0.787533    0.782433    0.788425
N288    N    0.783800    0.828200    0.901225
C862    C    0.739000    0.838400    0.833200
H718    H    0.764300    0.846200    0.919400
C863    C    0.713733    0.866933    0.857125
C864    C    0.753733    0.797833    0.766525
H719    H    0.746200    0.786667    0.981900
H720    H    0.702433    0.836633    0.768825
Xe1    Xe    0.981186    0.735671    0.375628
