data_NiPyC2_relax_sc211_meta_functionalized_CH3_pbesol_relax_PM
_symmetry_space_group_name_H-M	'P1'
_cell_length_a	12.505617
_cell_length_b	25.046824
_cell_length_c	20.553620
_cell_angle_alpha	90.000000
_cell_angle_beta	91.268973
_cell_angle_gamma	90.000000
_symmetry_Int_Tables_number 1

loop_
_symmetry_equiv_pos_as_xyz
'x,y,z'

loop_
_atom_site_label
_atom_site_type_symbol
_atom_site_fract_x
_atom_site_fract_y
_atom_site_fract_z
C1	C	0.277978	0.483374	0.269402
C2	C	0.025417	0.498277	0.019641
C3	C	0.386199	0.000387	0.275182
C4	C	0.133821	0.484855	0.022004
C5	C	0.454890	0.471511	0.316414
C6	C	0.204579	0.015175	0.062298
C7	C	0.205122	0.261487	0.259997
C8	C	0.444909	0.219863	0.010042
C9	C	0.242317	0.302441	0.300860
C10	C	0.484385	0.183617	0.057851
C11	C	0.243898	0.442369	0.312160
C12	C	0.988861	0.042230	0.055046
C13	C	0.414413	0.430972	0.356376
C14	C	0.161037	0.060748	0.093856
C15	C	0.092645	0.294596	0.365484
C16	C	0.340930	0.197659	0.125278
C17	C	0.052792	0.249554	0.330056
C18	C	0.298946	0.236679	0.082830
C19	C	0.109935	0.234992	0.273561
C20	C	0.352680	0.249584	0.026031
C21	C	0.428043	0.047703	0.240502
C22	C	0.173956	0.439676	0.483540
C23	C	0.070458	0.193250	0.228372
C24	C	0.312315	0.293758	0.484633
C25	C	0.794173	0.486841	0.256042
C26	C	0.549534	0.030936	0.008873
C27	C	0.890104	0.013152	0.270960
C28	C	0.643621	0.001942	0.025527
C29	C	0.947559	0.499144	0.329056
C30	C	0.698470	0.014580	0.083477
C31	C	0.720982	0.266771	0.271406
C32	C	0.971239	0.251677	0.019942
C33	C	0.753619	0.309134	0.313530
C34	C	0.008444	0.207204	0.055165
C35	C	0.755248	0.447647	0.297899
C36	C	0.510973	0.066784	0.056430
C37	C	0.905608	0.455827	0.365698
C38	C	0.656323	0.052707	0.125992
C39	C	0.584256	0.318005	0.355864
C40	C	0.838456	0.190871	0.094465
C41	C	0.545125	0.276083	0.316572
C42	C	0.794140	0.236558	0.062384
C43	C	0.613948	0.248308	0.276137
C44	C	0.863547	0.266240	0.022309
C45	C	0.929882	0.054514	0.226271
C46	C	0.684545	0.458807	0.483730
C47	C	0.573208	0.200569	0.240968
C48	C	0.823315	0.312094	0.483857
C49	C	0.201124	0.002727	0.221805
C50	C	0.315176	0.000626	0.075775
C51	C	0.962794	0.220564	0.356145
C52	C	0.500772	0.223005	0.449006
C53	C	0.040731	0.026973	0.355243
C54	C	0.489905	0.027090	0.447678
C55	C	0.797711	0.247040	0.225959
C56	C	0.684196	0.251285	0.074816
H1	H	0.252261	0.250905	0.218266
H2	H	0.028586	0.274810	0.492939
H3	H	0.317296	0.323072	0.292772
H4	H	0.092066	0.195380	0.055316
H5	H	0.160388	0.430316	0.311472
H6	H	0.436190	0.087477	0.046770
H7	H	0.465244	0.410828	0.392014
H8	H	0.212944	0.085907	0.123946
H9	H	0.047082	0.310611	0.405469
H10	H	0.300076	0.185630	0.168943
H11	H	0.461786	0.264616	0.320213
H12	H	0.225136	0.256748	0.095263
H13	H	0.747370	0.496140	0.212521
H14	H	0.966638	0.474776	0.492780
H15	H	0.539346	0.481202	0.320505
H16	H	0.773296	0.495053	0.096975
H17	H	0.836268	0.322511	0.313725
H18	H	0.558909	0.162951	0.049216
H19	H	0.679540	0.427404	0.288650
H20	H	0.904794	0.053063	0.055557
H21	H	0.951482	0.440237	0.407003
H22	H	0.697965	0.064542	0.170520
H23	H	0.533603	0.337823	0.390517
H24	H	0.787938	0.166565	0.125101
H25	H	0.120281	0.488941	0.230315
H26	H	0.205609	0.046286	0.217715
H27	H	0.225394	0.488545	0.173706
H28	H	0.352834	0.026737	0.111852
H29	H	0.321370	0.458865	0.091803
H30	H	0.359315	0.000169	0.030147
H31	H	0.920069	0.243739	0.392080
H32	H	0.993078	0.183784	0.379850
H33	H	0.909828	0.205361	0.317222
H34	H	0.566229	0.194549	0.446201
H35	H	0.531747	0.263875	0.443341
H36	H	0.444754	0.218257	0.407649
H37	H	0.082094	0.004111	0.393095
H38	H	0.014740	0.065265	0.376325
H39	H	0.094125	0.039509	0.316552
H40	H	0.424821	0.055804	0.443759
H41	H	0.456810	0.486401	0.443417
H42	H	0.543192	0.030438	0.406326
H43	H	0.877852	0.262624	0.234629
H44	H	0.796762	0.203270	0.224439
H45	H	0.770435	0.258248	0.176590
H46	H	0.647918	0.225133	0.110481
H47	H	0.678953	0.293121	0.090559
H48	H	0.637814	0.251622	0.028753
N1	N	0.309780	0.417644	0.354527
N2	N	0.056552	0.072693	0.091446
N3	N	0.185575	0.318549	0.352468
N4	N	0.434302	0.173004	0.113276
N5	N	0.811119	0.432792	0.351913
N6	N	0.562002	0.076872	0.113044
N7	N	0.687581	0.333506	0.354405
N8	N	0.942077	0.177570	0.091691
Ni1	Ni	0.246304	0.368137	0.418121
Ni2	Ni	0.499214	0.124476	0.179356
Ni3	Ni	0.750112	0.384980	0.418065
Ni4	Ni	0.999446	0.124467	0.154279
O1	O	0.126571	0.173497	0.182490
O2	O	0.368438	0.317395	0.441425
O3	O	0.372315	0.076865	0.200484
O4	O	0.116277	0.414191	0.441171
O5	O	0.477598	0.182903	0.248076
O6	O	0.217455	0.312571	0.489854
O7	O	0.024465	0.074085	0.230614
O8	O	0.271150	0.422871	0.487630
O9	O	0.627776	0.172486	0.200886
O10	O	0.879719	0.336956	0.441875
O11	O	0.873983	0.074014	0.178596
O12	O	0.628193	0.435442	0.438872
O13	O	0.975440	0.174097	0.229966
O14	O	0.727403	0.330247	0.487833
O15	O	0.524740	0.064027	0.248137
O16	O	0.780104	0.440532	0.490117
C57	C	0.277978	0.483374	0.769402
C58	C	0.025417	0.498277	0.519641
C59	C	0.386199	0.000387	0.775182
C60	C	0.133821	0.484855	0.522004
C61	C	0.454890	0.471511	0.816414
C62	C	0.204579	0.015175	0.562298
C63	C	0.205122	0.261487	0.759996
C64	C	0.444909	0.219863	0.510042
C65	C	0.242317	0.302441	0.800860
C66	C	0.484385	0.183617	0.557851
C67	C	0.243898	0.442369	0.812160
C68	C	0.988861	0.042230	0.555046
C69	C	0.414413	0.430972	0.856376
C70	C	0.161037	0.060748	0.593857
C71	C	0.092645	0.294596	0.865484
C72	C	0.340930	0.197659	0.625278
C73	C	0.052792	0.249554	0.830056
C74	C	0.298946	0.236679	0.582830
C75	C	0.109935	0.234992	0.773561
C76	C	0.352680	0.249584	0.526031
C77	C	0.428043	0.047703	0.740502
C78	C	0.173956	0.439676	0.983540
C79	C	0.070458	0.193250	0.728372
C80	C	0.312315	0.293758	0.984633
C81	C	0.794173	0.486841	0.756042
C82	C	0.549534	0.030936	0.508873
C83	C	0.890104	0.013152	0.770960
C84	C	0.643621	0.001942	0.525527
C85	C	0.947559	0.499144	0.829056
C86	C	0.698470	0.014580	0.583477
C87	C	0.720982	0.266771	0.771405
C88	C	0.971239	0.251677	0.519942
C89	C	0.753619	0.309134	0.813530
C90	C	0.008444	0.207204	0.555165
C91	C	0.755248	0.447647	0.797899
C92	C	0.510973	0.066784	0.556430
C93	C	0.905608	0.455827	0.865698
C94	C	0.656323	0.052707	0.625992
C95	C	0.584256	0.318005	0.855865
C96	C	0.838456	0.190871	0.594465
C97	C	0.545125	0.276083	0.816572
C98	C	0.794140	0.236558	0.562384
C99	C	0.613948	0.248308	0.776137
C100	C	0.863547	0.266240	0.522309
C101	C	0.929882	0.054514	0.726271
C102	C	0.684545	0.458807	0.983730
C103	C	0.573208	0.200569	0.740968
C104	C	0.823315	0.312094	0.983857
C105	C	0.201124	0.002727	0.721805
C106	C	0.315176	0.000626	0.575775
C107	C	0.962794	0.220564	0.856145
C108	C	0.500772	0.223005	0.949006
C109	C	0.040731	0.026973	0.855244
C110	C	0.489905	0.027090	0.947677
C111	C	0.797711	0.247040	0.725958
C112	C	0.684196	0.251285	0.574816
H49	H	0.252261	0.250905	0.718266
H50	H	0.028586	0.274810	0.992939
H51	H	0.317296	0.323072	0.792772
H52	H	0.092066	0.195380	0.555316
H53	H	0.160388	0.430316	0.811473
H54	H	0.436190	0.087477	0.546770
H55	H	0.465244	0.410828	0.892014
H56	H	0.212944	0.085907	0.623946
H57	H	0.047082	0.310611	0.905469
H58	H	0.300076	0.185630	0.668944
H59	H	0.461786	0.264616	0.820213
H60	H	0.225136	0.256748	0.595263
H61	H	0.747370	0.496140	0.712521
H62	H	0.966638	0.474776	0.992780
H63	H	0.539346	0.481202	0.820504
H64	H	0.773296	0.495053	0.596974
H65	H	0.836268	0.322511	0.813724
H66	H	0.558909	0.162951	0.549215
H67	H	0.679540	0.427404	0.788650
H68	H	0.904794	0.053063	0.555557
H69	H	0.951482	0.440237	0.907003
H70	H	0.697965	0.064542	0.670520
H71	H	0.533603	0.337823	0.890517
H72	H	0.787938	0.166565	0.625101
H73	H	0.120281	0.488941	0.730315
H74	H	0.205609	0.046286	0.717715
H75	H	0.225394	0.488545	0.673706
H76	H	0.352834	0.026737	0.611853
H77	H	0.321370	0.458865	0.591804
H78	H	0.359315	0.000169	0.530147
H79	H	0.920069	0.243739	0.892081
H80	H	0.993078	0.183784	0.879849
H81	H	0.909828	0.205361	0.817222
H82	H	0.566229	0.194549	0.946201
H83	H	0.531747	0.263875	0.943341
H84	H	0.444754	0.218257	0.907649
H85	H	0.082094	0.004111	0.893095
H86	H	0.014740	0.065265	0.876324
H87	H	0.094125	0.039509	0.816552
H88	H	0.424821	0.055804	0.943759
H89	H	0.456810	0.486401	0.943417
H90	H	0.543192	0.030438	0.906326
H91	H	0.877852	0.262624	0.734630
H92	H	0.796762	0.203270	0.724438
H93	H	0.770435	0.258248	0.676589
H94	H	0.647918	0.225133	0.610481
H95	H	0.678953	0.293121	0.590559
H96	H	0.637814	0.251622	0.528752
N9	N	0.309780	0.417644	0.854527
N10	N	0.056552	0.072693	0.591446
N11	N	0.185575	0.318549	0.852468
N12	N	0.434302	0.173004	0.613275
N13	N	0.811119	0.432792	0.851913
N14	N	0.562002	0.076872	0.613043
N15	N	0.687581	0.333506	0.854405
N16	N	0.942077	0.177570	0.591691
Ni5	Ni	0.246304	0.368137	0.918122
Ni6	Ni	0.499214	0.124476	0.679356
Ni7	Ni	0.750112	0.384980	0.918065
Ni8	Ni	0.999446	0.124467	0.654278
O17	O	0.126571	0.173497	0.682490
O18	O	0.368438	0.317395	0.941425
O19	O	0.372315	0.076865	0.700484
O20	O	0.116277	0.414191	0.941171
O21	O	0.477598	0.182903	0.748076
O22	O	0.217455	0.312571	0.989854
O23	O	0.024465	0.074085	0.730614
O24	O	0.271150	0.422871	0.987630
O25	O	0.627776	0.172486	0.700886
O26	O	0.879719	0.336956	0.941874
O27	O	0.873983	0.074014	0.678597
O28	O	0.628193	0.435442	0.938872
O29	O	0.975440	0.174097	0.729966
O30	O	0.727403	0.330247	0.987833
O31	O	0.524740	0.064027	0.748136
O32	O	0.780104	0.440532	0.990117
C113	C	0.277978	0.983375	0.269402
C114	C	0.025417	0.998277	0.019641
C115	C	0.386199	0.500387	0.275182
C116	C	0.133821	0.984855	0.022004
C117	C	0.454890	0.971511	0.316414
C118	C	0.204579	0.515175	0.062298
C119	C	0.205122	0.761487	0.259997
C120	C	0.444909	0.719863	0.010042
C121	C	0.242317	0.802441	0.300860
C122	C	0.484385	0.683617	0.057851
C123	C	0.243898	0.942369	0.312160
C124	C	0.988861	0.542230	0.055046
C125	C	0.414413	0.930972	0.356376
C126	C	0.161037	0.560748	0.093856
C127	C	0.092645	0.794596	0.365484
C128	C	0.340930	0.697659	0.125278
C129	C	0.052792	0.749554	0.330056
C130	C	0.298946	0.736679	0.082830
C131	C	0.109935	0.734992	0.273561
C132	C	0.352680	0.749584	0.026031
C133	C	0.428043	0.547702	0.240502
C134	C	0.173956	0.939676	0.483540
C135	C	0.070458	0.693250	0.228372
C136	C	0.312315	0.793759	0.484633
C137	C	0.794173	0.986841	0.256042
C138	C	0.549534	0.530936	0.008873
C139	C	0.890104	0.513153	0.270960
C140	C	0.643621	0.501942	0.025527
C141	C	0.947559	0.999144	0.329056
C142	C	0.698470	0.514580	0.083477
C143	C	0.720982	0.766771	0.271406
C144	C	0.971239	0.751677	0.019942
C145	C	0.753619	0.809134	0.313530
C146	C	0.008444	0.707203	0.055165
C147	C	0.755248	0.947647	0.297899
C148	C	0.510973	0.566785	0.056430
C149	C	0.905608	0.955828	0.365698
C150	C	0.656323	0.552708	0.125992
C151	C	0.584256	0.818005	0.355864
C152	C	0.838456	0.690871	0.094465
C153	C	0.545125	0.776083	0.316572
C154	C	0.794140	0.736558	0.062384
C155	C	0.613948	0.748309	0.276137
C156	C	0.863547	0.766240	0.022309
C157	C	0.929882	0.554514	0.226271
C158	C	0.684545	0.958808	0.483730
C159	C	0.573208	0.700569	0.240968
C160	C	0.823315	0.812094	0.483857
C161	C	0.201124	0.502727	0.221805
C162	C	0.315176	0.500626	0.075775
C163	C	0.962794	0.720564	0.356145
C164	C	0.500772	0.723005	0.449006
C165	C	0.040731	0.526973	0.355243
C166	C	0.489905	0.527090	0.447678
C167	C	0.797711	0.747040	0.225959
C168	C	0.684196	0.751285	0.074816
H97	H	0.252261	0.750905	0.218266
H98	H	0.028586	0.774810	0.492939
H99	H	0.317296	0.823072	0.292772
H100	H	0.092066	0.695380	0.055316
H101	H	0.160388	0.930316	0.311472
H102	H	0.436190	0.587477	0.046770
H103	H	0.465244	0.910828	0.392014
H104	H	0.212944	0.585908	0.123946
H105	H	0.047082	0.810611	0.405469
H106	H	0.300076	0.685630	0.168943
H107	H	0.461786	0.764616	0.320213
H108	H	0.225136	0.756748	0.095263
H109	H	0.747370	0.996139	0.212521
H110	H	0.966638	0.974776	0.492780
H111	H	0.539346	0.981202	0.320505
H112	H	0.773296	0.995054	0.096975
H113	H	0.836268	0.822511	0.313725
H114	H	0.558909	0.662951	0.049216
H115	H	0.679540	0.927404	0.288650
H116	H	0.904794	0.553064	0.055557
H117	H	0.951482	0.940237	0.407003
H118	H	0.697965	0.564542	0.170520
H119	H	0.533603	0.837823	0.390517
H120	H	0.787938	0.666565	0.125101
H121	H	0.120281	0.988941	0.230315
H122	H	0.205609	0.546285	0.217715
H123	H	0.225394	0.988545	0.173706
H124	H	0.352834	0.526737	0.111852
H125	H	0.321370	0.958865	0.091803
H126	H	0.359315	0.500169	0.030147
H127	H	0.920069	0.743739	0.392080
H128	H	0.993078	0.683785	0.379850
H129	H	0.909828	0.705361	0.317222
H130	H	0.566229	0.694549	0.446201
H131	H	0.531747	0.763875	0.443341
H132	H	0.444754	0.718257	0.407649
H133	H	0.082094	0.504111	0.393095
H134	H	0.014740	0.565265	0.376325
H135	H	0.094125	0.539509	0.316552
H136	H	0.424821	0.555804	0.443759
H137	H	0.456810	0.986401	0.443417
H138	H	0.543192	0.530438	0.406326
H139	H	0.877852	0.762624	0.234629
H140	H	0.796762	0.703271	0.224439
H141	H	0.770435	0.758248	0.176590
H142	H	0.647918	0.725133	0.110481
H143	H	0.678953	0.793122	0.090559
H144	H	0.637814	0.751622	0.028753
N17	N	0.309780	0.917644	0.354527
N18	N	0.056552	0.572693	0.091446
N19	N	0.185575	0.818549	0.352468
N20	N	0.434302	0.673003	0.113276
N21	N	0.811119	0.932792	0.351913
N22	N	0.562002	0.576873	0.113044
N23	N	0.687581	0.833506	0.354405
N24	N	0.942077	0.677570	0.091691
Ni9	Ni	0.246304	0.868137	0.418121
Ni10	Ni	0.499214	0.624475	0.179356
Ni11	Ni	0.750112	0.884980	0.418065
Ni12	Ni	0.999446	0.624467	0.154279
O33	O	0.126571	0.673497	0.182490
O34	O	0.368438	0.817395	0.441425
O35	O	0.372315	0.576865	0.200484
O36	O	0.116277	0.914192	0.441171
O37	O	0.477598	0.682903	0.248076
O38	O	0.217455	0.812571	0.489854
O39	O	0.024465	0.574085	0.230614
O40	O	0.271150	0.922871	0.487630
O41	O	0.627776	0.672486	0.200886
O42	O	0.879719	0.836956	0.441875
O43	O	0.873983	0.574014	0.178596
O44	O	0.628193	0.935442	0.438872
O45	O	0.975440	0.674098	0.229966
O46	O	0.727403	0.830247	0.487833
O47	O	0.524740	0.564027	0.248137
O48	O	0.780104	0.940532	0.490117
C169	C	0.277978	0.983375	0.769402
C170	C	0.025417	0.998277	0.519641
C171	C	0.386199	0.500387	0.775182
C172	C	0.133821	0.984855	0.522004
C173	C	0.454890	0.971511	0.816414
C174	C	0.204579	0.515175	0.562298
C175	C	0.205122	0.761487	0.759996
C176	C	0.444909	0.719863	0.510042
C177	C	0.242317	0.802441	0.800860
C178	C	0.484385	0.683617	0.557851
C179	C	0.243898	0.942369	0.812160
C180	C	0.988861	0.542230	0.555046
C181	C	0.414413	0.930972	0.856376
C182	C	0.161037	0.560748	0.593857
C183	C	0.092645	0.794596	0.865484
C184	C	0.340930	0.697659	0.625278
C185	C	0.052792	0.749554	0.830056
C186	C	0.298946	0.736679	0.582830
C187	C	0.109935	0.734992	0.773561
C188	C	0.352680	0.749584	0.526031
C189	C	0.428043	0.547702	0.740502
C190	C	0.173956	0.939676	0.983540
C191	C	0.070458	0.693250	0.728372
C192	C	0.312315	0.793759	0.984633
C193	C	0.794173	0.986841	0.756042
C194	C	0.549534	0.530936	0.508873
C195	C	0.890104	0.513153	0.770960
C196	C	0.643621	0.501942	0.525527
C197	C	0.947559	0.999144	0.829056
C198	C	0.698470	0.514580	0.583477
C199	C	0.720982	0.766771	0.771405
C200	C	0.971239	0.751677	0.519942
C201	C	0.753619	0.809134	0.813530
C202	C	0.008444	0.707203	0.555165
C203	C	0.755248	0.947647	0.797899
C204	C	0.510973	0.566785	0.556430
C205	C	0.905608	0.955828	0.865698
C206	C	0.656323	0.552708	0.625992
C207	C	0.584256	0.818005	0.855865
C208	C	0.838456	0.690871	0.594465
C209	C	0.545125	0.776083	0.816572
C210	C	0.794140	0.736558	0.562384
C211	C	0.613948	0.748309	0.776137
C212	C	0.863547	0.766240	0.522309
C213	C	0.929882	0.554514	0.726271
C214	C	0.684545	0.958808	0.983730
C215	C	0.573208	0.700569	0.740968
C216	C	0.823315	0.812094	0.983857
C217	C	0.201124	0.502727	0.721805
C218	C	0.315176	0.500626	0.575775
C219	C	0.962794	0.720564	0.856145
C220	C	0.500772	0.723005	0.949006
C221	C	0.040731	0.526973	0.855244
C222	C	0.489905	0.527090	0.947677
C223	C	0.797711	0.747040	0.725958
C224	C	0.684196	0.751285	0.574816
H145	H	0.252261	0.750905	0.718266
H146	H	0.028586	0.774810	0.992939
H147	H	0.317296	0.823072	0.792772
H148	H	0.092066	0.695380	0.555316
H149	H	0.160388	0.930316	0.811473
H150	H	0.436190	0.587477	0.546770
H151	H	0.465244	0.910828	0.892014
H152	H	0.212944	0.585908	0.623946
H153	H	0.047082	0.810611	0.905469
H154	H	0.300076	0.685630	0.668944
H155	H	0.461786	0.764616	0.820213
H156	H	0.225136	0.756748	0.595263
H157	H	0.747370	0.996139	0.712521
H158	H	0.966638	0.974776	0.992780
H159	H	0.539346	0.981202	0.820504
H160	H	0.773296	0.995054	0.596974
H161	H	0.836268	0.822511	0.813724
H162	H	0.558909	0.662951	0.549215
H163	H	0.679540	0.927404	0.788650
H164	H	0.904794	0.553064	0.555557
H165	H	0.951482	0.940237	0.907003
H166	H	0.697965	0.564542	0.670520
H167	H	0.533603	0.837823	0.890517
H168	H	0.787938	0.666565	0.625101
H169	H	0.120281	0.988941	0.730315
H170	H	0.205609	0.546285	0.717715
H171	H	0.225394	0.988545	0.673706
H172	H	0.352834	0.526737	0.611853
H173	H	0.321370	0.958865	0.591804
H174	H	0.359315	0.500169	0.530147
H175	H	0.920069	0.743739	0.892081
H176	H	0.993078	0.683785	0.879849
H177	H	0.909828	0.705361	0.817222
H178	H	0.566229	0.694549	0.946201
H179	H	0.531747	0.763875	0.943341
H180	H	0.444754	0.718257	0.907649
H181	H	0.082094	0.504111	0.893095
H182	H	0.014740	0.565265	0.876324
H183	H	0.094125	0.539509	0.816552
H184	H	0.424821	0.555804	0.943759
H185	H	0.456810	0.986401	0.943417
H186	H	0.543192	0.530438	0.906326
H187	H	0.877852	0.762624	0.734630
H188	H	0.796762	0.703271	0.724438
H189	H	0.770435	0.758248	0.676589
H190	H	0.647918	0.725133	0.610481
H191	H	0.678953	0.793122	0.590559
H192	H	0.637814	0.751622	0.528752
N25	N	0.309780	0.917644	0.854527
N26	N	0.056552	0.572693	0.591446
N27	N	0.185575	0.818549	0.852468
N28	N	0.434302	0.673003	0.613275
N29	N	0.811119	0.932792	0.851913
N30	N	0.562002	0.576873	0.613043
N31	N	0.687581	0.833506	0.854405
N32	N	0.942077	0.677570	0.591691
Ni13	Ni	0.246304	0.868137	0.918122
Ni14	Ni	0.499214	0.624475	0.679356
Ni15	Ni	0.750112	0.884980	0.918065
Ni16	Ni	0.999446	0.624467	0.654278
O49	O	0.126571	0.673497	0.682490
O50	O	0.368438	0.817395	0.941425
O51	O	0.372315	0.576865	0.700484
O52	O	0.116277	0.914192	0.941171
O53	O	0.477598	0.682903	0.748076
O54	O	0.217455	0.812571	0.989854
O55	O	0.024465	0.574085	0.730614
O56	O	0.271150	0.922871	0.987630
O57	O	0.627776	0.672486	0.700886
O58	O	0.879719	0.836956	0.941874
O59	O	0.873983	0.574014	0.678597
O60	O	0.628193	0.935442	0.938872
O61	O	0.975440	0.674098	0.729966
O62	O	0.727403	0.830247	0.987833
O63	O	0.524740	0.564027	0.748136
O64	O	0.780104	0.940532	0.990117
