data_NiPyC2_relax_sc211_meta_functionalized_NH2_pbesol_relax_PM
_symmetry_space_group_name_H-M	'P1'
_cell_length_a	12.505617
_cell_length_b	12.523412
_cell_length_c	10.276810
_cell_angle_alpha	90.000000
_cell_angle_beta	91.268973
_cell_angle_gamma	90.000000
_symmetry_Int_Tables_number 1

loop_
_symmetry_equiv_pos_as_xyz
'x,y,z'

loop_
_atom_site_label
_atom_site_type_symbol
_atom_site_fract_x
_atom_site_fract_y
_atom_site_fract_z
C1	C	0.281054	0.977594	0.537165
C2	C	0.026540	0.013334	0.037427
C3	C	0.392499	0.004212	0.539886
C4	C	0.134447	0.985260	0.043333
C5	C	0.458104	0.944074	0.622679
C6	C	0.202045	0.043185	0.132116
C7	C	0.216499	0.530662	0.533555
C8	C	0.461307	0.464303	0.023611
C9	C	0.248387	0.615638	0.617554
C10	C	0.496991	0.379308	0.105893
C11	C	0.243184	0.895188	0.620155
C12	C	-0.012300	0.095037	0.116589
C13	C	0.414354	0.864924	0.701898
C14	C	0.157576	0.130080	0.201762
C15	C	0.086594	0.609436	0.724520
C16	C	0.331534	0.368666	0.201291
C17	C	0.049757	0.525898	0.644705
C18	C	0.290816	0.453150	0.126137
C19	C	0.113320	0.483839	0.547714
C20	C	0.355334	0.505006	0.037550
C21	C	0.434825	0.093843	0.464146
C22	C	0.177346	0.898094	0.965241
C23	C	0.075545	0.394862	0.465881
C24	C	0.315964	0.598543	0.964873
C25	C	0.783186	0.977488	0.523990
C26	C	0.546046	0.040525	0.017536
C27	C	0.882317	0.024925	0.548876
C28	C	0.646343	0.989716	0.044468
C29	C	0.943980	0.983423	0.656455
C30	C	0.704887	0.026091	0.152311
C31	C	0.718055	0.508332	0.551985
C32	C	0.967032	0.484480	0.032236
C33	C	0.756117	0.594655	0.631036
C34	C	1.005022	0.399793	0.109323
C35	C	0.747927	0.892821	0.601079
C36	C	0.511307	0.123201	0.101177
C37	C	0.903195	0.895924	0.728978
C38	C	0.663753	0.106079	0.232433
C39	C	0.583455	0.634710	0.692734
C40	C	0.841073	0.380013	0.207981
C41	C	0.539813	0.552139	0.616742
C42	C	0.798292	0.469734	0.139512
C43	C	0.605367	0.487705	0.542556
C44	C	0.862792	0.521733	0.045303
C45	C	0.924084	0.110773	0.466957
C46	C	0.685576	0.901737	0.964213
C47	C	0.562654	0.399033	0.463386
C48	C	0.820483	0.610024	0.965930
H1	H	0.020910	0.522057	0.964525
H2	H	0.326699	0.652756	0.607970
H3	H	0.086212	0.369879	0.102319
H4	H	0.158659	0.874112	0.619152
H5	H	0.435700	0.163651	0.080542
H6	H	0.463478	0.819603	0.770487
H7	H	0.208885	0.180319	0.262989
H8	H	0.037886	0.642367	0.801085
H9	H	0.282526	0.326646	0.270561
H10	H	0.454350	0.536708	0.621015
H11	H	0.209526	0.480406	0.140758
H12	H	0.731532	1.005338	0.444785
H13	H	0.969677	-0.030400	0.976244
H14	H	0.543238	0.960889	0.630750
H15	H	0.781931	0.990764	0.177409
H16	H	0.841421	0.611863	0.639498
H17	H	0.577901	0.348048	0.097580
H18	H	0.671343	0.854087	0.582783
H19	H	0.903392	0.115925	0.117545
H20	H	0.950578	0.862511	0.809482
H21	H	0.708062	0.134625	0.317550
H22	H	0.533467	0.684832	0.752335
H23	H	0.790556	0.333786	0.271987
H24	H	0.971520	0.492193	0.663428
H25	H	0.130367	1.027043	0.469782
H26	H	0.242589	0.094368	0.411641
H27	H	0.345337	0.056790	0.229940
H28	H	0.333035	0.951877	0.107876
H29	H	0.361479	0.520431	0.443657
H30	H	0.261408	0.430485	0.391325
H31	H	0.606327	0.484077	0.934934
H32	H	0.501267	0.570835	0.885517
H33	H	0.078657	0.984961	0.770739
H34	H	0.068177	0.087504	0.646841
H35	H	0.409406	0.044683	0.902778
H36	H	0.507907	0.949161	0.861402
H37	H	0.869164	0.444712	0.504292
H38	H	0.753662	0.381106	0.444023
H39	H	0.659607	0.462247	0.240463
H40	H	0.669709	0.567192	0.119539
N1	N	0.308139	0.843483	0.703629
N2	N	0.053247	0.151654	0.198250
N3	N	0.185461	0.652061	0.710702
N4	N	0.434751	0.336176	0.195972
N5	N	0.807336	0.854028	0.702771
N6	N	0.567186	0.152053	0.207594
N7	N	0.690104	0.654707	0.700645
N8	N	0.942604	0.349809	0.197075
N9	N	0.211735	0.031113	0.462069
N10	N	0.304269	1.018060	0.155409
N11	N	0.283751	0.496363	0.444549
N12	N	0.527930	0.505734	0.937832
N13	N	0.038127	0.023357	0.696308
N14	N	0.483349	1.012197	0.917115
N15	N	0.786834	0.444612	0.493778
N16	N	0.700103	0.502153	0.169220
Ni1	Ni	0.247186	0.749829	0.843338
Ni2	Ni	0.499543	0.244948	0.339832
Ni3	Ni	0.750525	0.755356	0.835065
Ni4	Ni	1.000165	0.250776	0.331920
O1	O	0.132748	0.346528	0.381500
O2	O	0.373673	0.649740	0.882360
O3	O	0.377655	0.141280	0.372724
O4	O	0.121967	0.852622	0.873590
O5	O	0.467785	0.362966	0.474220
O6	O	0.221339	0.635667	0.979018
O7	O	0.023319	0.140058	0.476811
O8	O	0.273686	0.862598	0.981108
O9	O	0.620185	0.351014	0.376583
O10	O	0.876326	0.660010	0.881928
O11	O	0.868596	0.160734	0.380238
O12	O	0.626967	0.855924	0.874933
O13	O	0.979035	0.360333	0.474285
O14	O	0.722524	0.642007	0.974026
O15	O	0.528274	0.132170	0.482377
O16	O	0.780521	0.864443	0.977773
