data_NiPyC2_relax_sc211_meta_functionalized_NH2_pbesol_relax_PM
_symmetry_space_group_name_H-M	'P1'
_cell_length_a	12.505617
_cell_length_b	25.046824
_cell_length_c	20.553620
_cell_angle_alpha	90.000000
_cell_angle_beta	91.268973
_cell_angle_gamma	90.000000
_symmetry_Int_Tables_number 1

loop_
_symmetry_equiv_pos_as_xyz
'x,y,z'

loop_
_atom_site_label
_atom_site_type_symbol
_atom_site_fract_x
_atom_site_fract_y
_atom_site_fract_z
C1	C	0.281054	0.488797	0.268583
C2	C	0.026540	0.006667	0.018714
C3	C	0.392499	0.002106	0.269943
C4	C	0.134447	0.492630	0.021667
C5	C	0.458104	0.472037	0.311339
C6	C	0.202045	0.021593	0.066058
C7	C	0.216499	0.265331	0.266778
C8	C	0.461307	0.232152	0.011806
C9	C	0.248387	0.307819	0.308777
C10	C	0.496991	0.189654	0.052947
C11	C	0.243184	0.447594	0.310078
C12	C	0.987700	0.047518	0.058294
C13	C	0.414354	0.432462	0.350949
C14	C	0.157576	0.065040	0.100881
C15	C	0.086594	0.304718	0.362260
C16	C	0.331534	0.184333	0.100645
C17	C	0.049757	0.262949	0.322352
C18	C	0.290816	0.226575	0.063068
C19	C	0.113320	0.241920	0.273857
C20	C	0.355334	0.252503	0.018775
C21	C	0.434825	0.046921	0.232073
C22	C	0.177346	0.449047	0.482621
C23	C	0.075545	0.197431	0.232940
C24	C	0.315964	0.299272	0.482436
C25	C	0.783186	0.488744	0.261995
C26	C	0.546046	0.020262	0.008768
C27	C	0.882317	0.012462	0.274438
C28	C	0.646343	0.494858	0.022234
C29	C	0.943980	0.491712	0.328228
C30	C	0.704887	0.013045	0.076156
C31	C	0.718055	0.254166	0.275992
C32	C	0.967032	0.242240	0.016118
C33	C	0.756117	0.297328	0.315518
C34	C	0.005022	0.199897	0.054662
C35	C	0.747927	0.446410	0.300540
C36	C	0.511307	0.061601	0.050589
C37	C	0.903195	0.447962	0.364489
C38	C	0.663753	0.053040	0.116217
C39	C	0.583455	0.317355	0.346367
C40	C	0.841073	0.190006	0.103990
C41	C	0.539813	0.276070	0.308371
C42	C	0.798292	0.234867	0.069756
C43	C	0.605367	0.243852	0.271278
C44	C	0.862792	0.260867	0.022652
C45	C	0.924084	0.055386	0.233479
C46	C	0.685576	0.450869	0.482106
C47	C	0.562654	0.199517	0.231693
C48	C	0.820483	0.305012	0.482965
H1	H	0.020910	0.261028	0.482262
H2	H	0.326699	0.326378	0.303985
H3	H	0.086212	0.184940	0.051159
H4	H	0.158659	0.437056	0.309576
H5	H	0.435700	0.081825	0.040271
H6	H	0.463478	0.409801	0.385244
H7	H	0.208885	0.090160	0.131494
H8	H	0.037886	0.321184	0.400543
H9	H	0.282526	0.163323	0.135280
H10	H	0.454350	0.268354	0.310507
H11	H	0.209526	0.240203	0.070379
H12	H	0.731532	0.002669	0.222392
H13	H	0.969677	0.484800	0.488122
H14	H	0.543238	0.480444	0.315375
H15	H	0.781931	0.495382	0.088705
H16	H	0.841421	0.305932	0.319749
H17	H	0.577901	0.174024	0.048790
H18	H	0.671343	0.427044	0.291392
H19	H	0.903392	0.057963	0.058772
H20	H	0.950578	0.431256	0.404741
H21	H	0.708062	0.067312	0.158775
H22	H	0.533467	0.342416	0.376167
H23	H	0.790556	0.166893	0.135993
H24	H	0.971520	0.246096	0.331714
H25	H	0.130367	0.013521	0.234891
H26	H	0.242589	0.047184	0.205820
H27	H	0.345337	0.028395	0.114970
H28	H	0.333035	0.475938	0.053938
H29	H	0.361479	0.260215	0.221829
H30	H	0.261408	0.215243	0.195662
H31	H	0.606327	0.242038	0.467467
H32	H	0.501267	0.285417	0.442758
H33	H	0.078657	0.492480	0.385369
H34	H	0.068177	0.043752	0.323420
H35	H	0.409406	0.022342	0.451389
H36	H	0.507907	0.474581	0.430701
H37	H	0.869164	0.222356	0.252146
H38	H	0.753662	0.190553	0.222012
H39	H	0.659607	0.231124	0.120232
H40	H	0.669709	0.283596	0.059770
N1	N	0.308139	0.421741	0.351814
N2	N	0.053247	0.075827	0.099125
N3	N	0.185461	0.326031	0.355351
N4	N	0.434751	0.168088	0.097986
N5	N	0.807336	0.427014	0.351386
N6	N	0.567186	0.076026	0.103797
N7	N	0.690104	0.327354	0.350322
N8	N	0.942604	0.174904	0.098538
N9	N	0.211735	0.015556	0.231035
N10	N	0.304269	0.009030	0.077704
N11	N	0.283751	0.248181	0.222275
N12	N	0.527930	0.252867	0.468916
N13	N	0.038127	0.011678	0.348154
N14	N	0.483349	0.006099	0.458558
N15	N	0.786834	0.222306	0.246889
N16	N	0.700103	0.251076	0.084610
Ni1	Ni	0.247186	0.374914	0.421669
Ni2	Ni	0.499543	0.122474	0.169916
Ni3	Ni	0.750525	0.377678	0.417532
Ni4	Ni	0.000165	0.125388	0.165960
O1	O	0.132748	0.173264	0.190750
O2	O	0.373673	0.324870	0.441180
O3	O	0.377655	0.070640	0.186362
O4	O	0.121967	0.426311	0.436795
O5	O	0.467785	0.181483	0.237110
O6	O	0.221339	0.317833	0.489509
O7	O	0.023319	0.070029	0.238405
O8	O	0.273686	0.431299	0.490554
O9	O	0.620185	0.175507	0.188292
O10	O	0.876326	0.330005	0.440964
O11	O	0.868596	0.080367	0.190119
O12	O	0.626967	0.427962	0.437466
O13	O	0.979035	0.180167	0.237143
O14	O	0.722524	0.321003	0.487013
O15	O	0.528274	0.066085	0.241189
O16	O	0.780521	0.432221	0.488887
C49	C	0.281054	0.488797	0.768582
C50	C	0.026540	0.006667	0.518714
C51	C	0.392499	0.002106	0.769943
C52	C	0.134447	0.492630	0.521667
C53	C	0.458104	0.472037	0.811339
C54	C	0.202045	0.021593	0.566058
C55	C	0.216499	0.265331	0.766778
C56	C	0.461307	0.232152	0.511806
C57	C	0.248387	0.307819	0.808777
C58	C	0.496991	0.189654	0.552947
C59	C	0.243184	0.447594	0.810078
C60	C	0.987700	0.047518	0.558295
C61	C	0.414354	0.432462	0.850949
C62	C	0.157576	0.065040	0.600881
C63	C	0.086594	0.304718	0.862260
C64	C	0.331534	0.184333	0.600645
C65	C	0.049757	0.262949	0.822353
C66	C	0.290816	0.226575	0.563068
C67	C	0.113320	0.241920	0.773857
C68	C	0.355334	0.252503	0.518775
C69	C	0.434825	0.046921	0.732073
C70	C	0.177346	0.449047	0.982621
C71	C	0.075545	0.197431	0.732940
C72	C	0.315964	0.299272	0.982436
C73	C	0.783186	0.488744	0.761995
C74	C	0.546046	0.020262	0.508768
C75	C	0.882317	0.012462	0.774438
C76	C	0.646343	0.494858	0.522234
C77	C	0.943980	0.491712	0.828228
C78	C	0.704887	0.013045	0.576156
C79	C	0.718055	0.254166	0.775992
C80	C	0.967032	0.242240	0.516118
C81	C	0.756117	0.297328	0.815518
C82	C	0.005022	0.199897	0.554662
C83	C	0.747927	0.446410	0.800539
C84	C	0.511307	0.061601	0.550589
C85	C	0.903195	0.447962	0.864489
C86	C	0.663753	0.053040	0.616216
C87	C	0.583455	0.317355	0.846367
C88	C	0.841073	0.190006	0.603990
C89	C	0.539813	0.276070	0.808371
C90	C	0.798292	0.234867	0.569756
C91	C	0.605367	0.243852	0.771278
C92	C	0.862792	0.260867	0.522652
C93	C	0.924084	0.055386	0.733479
C94	C	0.685576	0.450869	0.982106
C95	C	0.562654	0.199517	0.731693
C96	C	0.820483	0.305012	0.982965
H41	H	0.020910	0.261028	0.982263
H42	H	0.326699	0.326378	0.803985
H43	H	0.086212	0.184940	0.551160
H44	H	0.158659	0.437056	0.809576
H45	H	0.435700	0.081825	0.540271
H46	H	0.463478	0.409801	0.885244
H47	H	0.208885	0.090160	0.631494
H48	H	0.037886	0.321184	0.900543
H49	H	0.282526	0.163323	0.635281
H50	H	0.454350	0.268354	0.810507
H51	H	0.209526	0.240203	0.570379
H52	H	0.731532	0.002669	0.722392
H53	H	0.969677	0.484800	0.988122
H54	H	0.543238	0.480444	0.815375
H55	H	0.781931	0.495382	0.588704
H56	H	0.841421	0.305932	0.819749
H57	H	0.577901	0.174024	0.548790
H58	H	0.671343	0.427044	0.791392
H59	H	0.903392	0.057963	0.558773
H60	H	0.950578	0.431256	0.904741
H61	H	0.708062	0.067312	0.658775
H62	H	0.533467	0.342416	0.876167
H63	H	0.790556	0.166893	0.635993
H64	H	0.971520	0.246096	0.831714
H65	H	0.130367	0.013521	0.734891
H66	H	0.242589	0.047184	0.705820
H67	H	0.345337	0.028395	0.614970
H68	H	0.333035	0.475938	0.553938
H69	H	0.361479	0.260215	0.721828
H70	H	0.261408	0.215243	0.695662
H71	H	0.606327	0.242038	0.967467
H72	H	0.501267	0.285417	0.942759
H73	H	0.078657	0.492480	0.885369
H74	H	0.068177	0.043752	0.823420
H75	H	0.409406	0.022342	0.951389
H76	H	0.507907	0.474581	0.930701
H77	H	0.869164	0.222356	0.752146
H78	H	0.753662	0.190553	0.722012
H79	H	0.659607	0.231124	0.620232
H80	H	0.669709	0.283596	0.559770
N17	N	0.308139	0.421741	0.851814
N18	N	0.053247	0.075827	0.599125
N19	N	0.185461	0.326031	0.855351
N20	N	0.434751	0.168088	0.597986
N21	N	0.807336	0.427014	0.851386
N22	N	0.567186	0.076026	0.603797
N23	N	0.690104	0.327354	0.850322
N24	N	0.942604	0.174904	0.598537
N25	N	0.211735	0.015556	0.731035
N26	N	0.304269	0.009030	0.577704
N27	N	0.283751	0.248181	0.722275
N28	N	0.527930	0.252867	0.968916
N29	N	0.038127	0.011678	0.848154
N30	N	0.483349	0.006099	0.958557
N31	N	0.786834	0.222306	0.746889
N32	N	0.700103	0.251076	0.584610
Ni5	Ni	0.247186	0.374914	0.921669
Ni6	Ni	0.499543	0.122474	0.669916
Ni7	Ni	0.750525	0.377678	0.917532
Ni8	Ni	0.000165	0.125388	0.665960
O17	O	0.132748	0.173264	0.690750
O18	O	0.373673	0.324870	0.941180
O19	O	0.377655	0.070640	0.686362
O20	O	0.121967	0.426311	0.936795
O21	O	0.467785	0.181483	0.737110
O22	O	0.221339	0.317833	0.989509
O23	O	0.023319	0.070029	0.738406
O24	O	0.273686	0.431299	0.990554
O25	O	0.620185	0.175507	0.688292
O26	O	0.876326	0.330005	0.940964
O27	O	0.868596	0.080367	0.690119
O28	O	0.626967	0.427962	0.937466
O29	O	0.979035	0.180167	0.737143
O30	O	0.722524	0.321003	0.987013
O31	O	0.528274	0.066085	0.741189
O32	O	0.780521	0.432221	0.988887
C97	C	0.281054	0.988797	0.268583
C98	C	0.026540	0.506667	0.018714
C99	C	0.392499	0.502106	0.269943
C100	C	0.134447	0.992630	0.021667
C101	C	0.458104	0.972037	0.311339
C102	C	0.202045	0.521593	0.066058
C103	C	0.216499	0.765331	0.266778
C104	C	0.461307	0.732152	0.011806
C105	C	0.248387	0.807819	0.308777
C106	C	0.496991	0.689654	0.052947
C107	C	0.243184	0.947594	0.310078
C108	C	0.987700	0.547519	0.058294
C109	C	0.414354	0.932462	0.350949
C110	C	0.157576	0.565040	0.100881
C111	C	0.086594	0.804718	0.362260
C112	C	0.331534	0.684333	0.100645
C113	C	0.049757	0.762949	0.322352
C114	C	0.290816	0.726575	0.063068
C115	C	0.113320	0.741920	0.273857
C116	C	0.355334	0.752503	0.018775
C117	C	0.434825	0.546921	0.232073
C118	C	0.177346	0.949047	0.482621
C119	C	0.075545	0.697431	0.232940
C120	C	0.315964	0.799272	0.482436
C121	C	0.783186	0.988744	0.261995
C122	C	0.546046	0.520262	0.008768
C123	C	0.882317	0.512463	0.274438
C124	C	0.646343	0.994858	0.022234
C125	C	0.943980	0.991712	0.328228
C126	C	0.704887	0.513046	0.076156
C127	C	0.718055	0.754166	0.275992
C128	C	0.967032	0.742240	0.016118
C129	C	0.756117	0.797327	0.315518
C130	C	0.005022	0.699897	0.054662
C131	C	0.747927	0.946411	0.300540
C132	C	0.511307	0.561600	0.050589
C133	C	0.903195	0.947962	0.364489
C134	C	0.663753	0.553040	0.116217
C135	C	0.583455	0.817355	0.346367
C136	C	0.841073	0.690006	0.103990
C137	C	0.539813	0.776069	0.308371
C138	C	0.798292	0.734867	0.069756
C139	C	0.605367	0.743853	0.271278
C140	C	0.862792	0.760867	0.022652
C141	C	0.924084	0.555387	0.233479
C142	C	0.685576	0.950869	0.482106
C143	C	0.562654	0.699516	0.231693
C144	C	0.820483	0.805012	0.482965
H81	H	0.020910	0.761028	0.482262
H82	H	0.326699	0.826378	0.303985
H83	H	0.086212	0.684940	0.051159
H84	H	0.158659	0.937056	0.309576
H85	H	0.435700	0.581825	0.040271
H86	H	0.463478	0.909801	0.385244
H87	H	0.208885	0.590159	0.131494
H88	H	0.037886	0.821184	0.400543
H89	H	0.282526	0.663323	0.135280
H90	H	0.454350	0.768354	0.310507
H91	H	0.209526	0.740203	0.070379
H92	H	0.731532	0.502669	0.222392
H93	H	0.969677	0.984800	0.488122
H94	H	0.543238	0.980444	0.315375
H95	H	0.781931	0.995382	0.088705
H96	H	0.841421	0.805932	0.319749
H97	H	0.577901	0.674024	0.048790
H98	H	0.671343	0.927044	0.291392
H99	H	0.903392	0.557963	0.058772
H100	H	0.950578	0.931256	0.404741
H101	H	0.708062	0.567312	0.158775
H102	H	0.533467	0.842416	0.376167
H103	H	0.790556	0.666893	0.135993
H104	H	0.971520	0.746096	0.331714
H105	H	0.130367	0.513521	0.234891
H106	H	0.242589	0.547184	0.205820
H107	H	0.345337	0.528395	0.114970
H108	H	0.333035	0.975939	0.053938
H109	H	0.361479	0.760215	0.221829
H110	H	0.261408	0.715243	0.195662
H111	H	0.606327	0.742039	0.467467
H112	H	0.501267	0.785417	0.442758
H113	H	0.078657	0.992480	0.385369
H114	H	0.068177	0.543752	0.323420
H115	H	0.409406	0.522342	0.451389
H116	H	0.507907	0.974581	0.430701
H117	H	0.869164	0.722356	0.252146
H118	H	0.753662	0.690553	0.222012
H119	H	0.659607	0.731124	0.120232
H120	H	0.669709	0.783596	0.059770
N33	N	0.308139	0.921741	0.351814
N34	N	0.053247	0.575827	0.099125
N35	N	0.185461	0.826031	0.355351
N36	N	0.434751	0.668088	0.097986
N37	N	0.807336	0.927014	0.351386
N38	N	0.567186	0.576026	0.103797
N39	N	0.690104	0.827354	0.350322
N40	N	0.942604	0.674905	0.098538
N41	N	0.211735	0.515556	0.231035
N42	N	0.304269	0.509030	0.077704
N43	N	0.283751	0.748182	0.222275
N44	N	0.527930	0.752867	0.468916
N45	N	0.038127	0.511679	0.348154
N46	N	0.483349	0.506099	0.458558
N47	N	0.786834	0.722306	0.246889
N48	N	0.700103	0.751076	0.084610
Ni9	Ni	0.247186	0.874915	0.421669
Ni10	Ni	0.499543	0.622474	0.169916
Ni11	Ni	0.750525	0.877678	0.417532
Ni12	Ni	0.000165	0.625388	0.165960
O33	O	0.132748	0.673264	0.190750
O34	O	0.373673	0.824870	0.441180
O35	O	0.377655	0.570640	0.186362
O36	O	0.121967	0.926311	0.436795
O37	O	0.467785	0.681483	0.237110
O38	O	0.221339	0.817833	0.489509
O39	O	0.023319	0.570029	0.238405
O40	O	0.273686	0.931299	0.490554
O41	O	0.620185	0.675507	0.188292
O42	O	0.876326	0.830005	0.440964
O43	O	0.868596	0.580367	0.190119
O44	O	0.626967	0.927962	0.437466
O45	O	0.979035	0.680167	0.237143
O46	O	0.722524	0.821003	0.487013
O47	O	0.528274	0.566085	0.241189
O48	O	0.780521	0.932222	0.488887
C145	C	0.281054	0.988797	0.768582
C146	C	0.026540	0.506667	0.518714
C147	C	0.392499	0.502106	0.769943
C148	C	0.134447	0.992630	0.521667
C149	C	0.458104	0.972037	0.811339
C150	C	0.202045	0.521593	0.566058
C151	C	0.216499	0.765331	0.766778
C152	C	0.461307	0.732152	0.511806
C153	C	0.248387	0.807819	0.808777
C154	C	0.496991	0.689654	0.552947
C155	C	0.243184	0.947594	0.810078
C156	C	0.987700	0.547519	0.558295
C157	C	0.414354	0.932462	0.850949
C158	C	0.157576	0.565040	0.600881
C159	C	0.086594	0.804718	0.862260
C160	C	0.331534	0.684333	0.600645
C161	C	0.049757	0.762949	0.822353
C162	C	0.290816	0.726575	0.563068
C163	C	0.113320	0.741920	0.773857
C164	C	0.355334	0.752503	0.518775
C165	C	0.434825	0.546921	0.732073
C166	C	0.177346	0.949047	0.982621
C167	C	0.075545	0.697431	0.732940
C168	C	0.315964	0.799272	0.982436
C169	C	0.783186	0.988744	0.761995
C170	C	0.546046	0.520262	0.508768
C171	C	0.882317	0.512463	0.774438
C172	C	0.646343	0.994858	0.522234
C173	C	0.943980	0.991712	0.828228
C174	C	0.704887	0.513046	0.576156
C175	C	0.718055	0.754166	0.775992
C176	C	0.967032	0.742240	0.516118
C177	C	0.756117	0.797327	0.815518
C178	C	0.005022	0.699897	0.554662
C179	C	0.747927	0.946411	0.800539
C180	C	0.511307	0.561600	0.550589
C181	C	0.903195	0.947962	0.864489
C182	C	0.663753	0.553040	0.616216
C183	C	0.583455	0.817355	0.846367
C184	C	0.841073	0.690006	0.603990
C185	C	0.539813	0.776069	0.808371
C186	C	0.798292	0.734867	0.569756
C187	C	0.605367	0.743853	0.771278
C188	C	0.862792	0.760867	0.522652
C189	C	0.924084	0.555387	0.733479
C190	C	0.685576	0.950869	0.982106
C191	C	0.562654	0.699516	0.731693
C192	C	0.820483	0.805012	0.982965
H121	H	0.020910	0.761028	0.982263
H122	H	0.326699	0.826378	0.803985
H123	H	0.086212	0.684940	0.551160
H124	H	0.158659	0.937056	0.809576
H125	H	0.435700	0.581825	0.540271
H126	H	0.463478	0.909801	0.885244
H127	H	0.208885	0.590159	0.631494
H128	H	0.037886	0.821184	0.900543
H129	H	0.282526	0.663323	0.635281
H130	H	0.454350	0.768354	0.810507
H131	H	0.209526	0.740203	0.570379
H132	H	0.731532	0.502669	0.722392
H133	H	0.969677	0.984800	0.988122
H134	H	0.543238	0.980444	0.815375
H135	H	0.781931	0.995382	0.588704
H136	H	0.841421	0.805932	0.819749
H137	H	0.577901	0.674024	0.548790
H138	H	0.671343	0.927044	0.791392
H139	H	0.903392	0.557963	0.558773
H140	H	0.950578	0.931256	0.904741
H141	H	0.708062	0.567312	0.658775
H142	H	0.533467	0.842416	0.876167
H143	H	0.790556	0.666893	0.635993
H144	H	0.971520	0.746096	0.831714
H145	H	0.130367	0.513521	0.734891
H146	H	0.242589	0.547184	0.705820
H147	H	0.345337	0.528395	0.614970
H148	H	0.333035	0.975939	0.553938
H149	H	0.361479	0.760215	0.721828
H150	H	0.261408	0.715243	0.695662
H151	H	0.606327	0.742039	0.967467
H152	H	0.501267	0.785417	0.942759
H153	H	0.078657	0.992480	0.885369
H154	H	0.068177	0.543752	0.823420
H155	H	0.409406	0.522342	0.951389
H156	H	0.507907	0.974581	0.930701
H157	H	0.869164	0.722356	0.752146
H158	H	0.753662	0.690553	0.722012
H159	H	0.659607	0.731124	0.620232
H160	H	0.669709	0.783596	0.559770
N49	N	0.308139	0.921741	0.851814
N50	N	0.053247	0.575827	0.599125
N51	N	0.185461	0.826031	0.855351
N52	N	0.434751	0.668088	0.597986
N53	N	0.807336	0.927014	0.851386
N54	N	0.567186	0.576026	0.603797
N55	N	0.690104	0.827354	0.850322
N56	N	0.942604	0.674905	0.598537
N57	N	0.211735	0.515556	0.731035
N58	N	0.304269	0.509030	0.577704
N59	N	0.283751	0.748182	0.722275
N60	N	0.527930	0.752867	0.968916
N61	N	0.038127	0.511679	0.848154
N62	N	0.483349	0.506099	0.958557
N63	N	0.786834	0.722306	0.746889
N64	N	0.700103	0.751076	0.584610
Ni13	Ni	0.247186	0.874915	0.921669
Ni14	Ni	0.499543	0.622474	0.669916
Ni15	Ni	0.750525	0.877678	0.917532
Ni16	Ni	0.000165	0.625388	0.665960
O49	O	0.132748	0.673264	0.690750
O50	O	0.373673	0.824870	0.941180
O51	O	0.377655	0.570640	0.686362
O52	O	0.121967	0.926311	0.936795
O53	O	0.467785	0.681483	0.737110
O54	O	0.221339	0.817833	0.989509
O55	O	0.023319	0.570029	0.738406
O56	O	0.273686	0.931299	0.990554
O57	O	0.620185	0.675507	0.688292
O58	O	0.876326	0.830005	0.940964
O59	O	0.868596	0.580367	0.690119
O60	O	0.626967	0.927962	0.937466
O61	O	0.979035	0.680167	0.737143
O62	O	0.722524	0.821003	0.987013
O63	O	0.528274	0.566085	0.741189
O64	O	0.780521	0.932222	0.988887
