data_NiPyC2_relax_sc211_meta_functionalized_NH2_pbesol_relaxNiPyC2_relax_sc211_meta_functionalized_NH2_pbesol_relax_comp1_PM
_symmetry_space_group_name_H-M	'P1'
_cell_length_a	25.011234
_cell_length_b	25.046824
_cell_length_c	20.553620
_cell_angle_alpha	90.000000
_cell_angle_beta	91.268973
_cell_angle_gamma	90.000000
_symmetry_Int_Tables_number 1

loop_
_symmetry_equiv_pos_as_xyz
'x,y,z'

loop_
_atom_site_label
_atom_site_type_symbol
_atom_site_fract_x
_atom_site_fract_y
_atom_site_fract_z
C1	C	0.140527	0.488797	0.268583
C2	C	0.013270	0.006667	0.018714
C3	C	0.229052	0.472037	0.311339
C4	C	0.101023	0.021593	0.066058
C5	C	0.108249	0.265331	0.266778
C6	C	0.124193	0.307819	0.308777
C7	C	0.121592	0.447594	0.310078
C8	C	0.493850	0.047518	0.058294
C9	C	0.207177	0.432462	0.350949
C10	C	0.078788	0.065040	0.100881
C11	C	0.043297	0.304718	0.362260
C12	C	0.024879	0.262949	0.322352
C13	C	0.056660	0.241920	0.273857
C14	C	0.088673	0.449047	0.482621
C15	C	0.037773	0.197431	0.232940
C16	C	0.157982	0.299272	0.482436
C17	C	0.441159	0.012462	0.274438
C18	C	0.323172	0.494858	0.022234
C19	C	0.483516	0.242240	0.016118
C20	C	0.002511	0.199897	0.054662
C21	C	0.420536	0.190006	0.103990
C22	C	0.399146	0.234867	0.069756
C23	C	0.431396	0.260867	0.022652
C24	C	0.462042	0.055386	0.233479
H1	H	0.163350	0.326378	0.303985
H2	H	0.043106	0.184940	0.051159
H3	H	0.079329	0.437056	0.309576
H4	H	0.231739	0.409801	0.385244
H5	H	0.104442	0.090160	0.131494
H6	H	0.018943	0.321184	0.400543
H7	H	0.365766	0.002669	0.222392
H8	H	0.484839	0.484800	0.488122
H9	H	0.271619	0.480444	0.315375
H10	H	0.390966	0.495382	0.088705
H11	H	0.451696	0.057963	0.058772
H12	H	0.395278	0.166893	0.135993
H13	H	0.485760	0.246096	0.331714
H14	H	0.172669	0.028395	0.114970
H15	H	0.180739	0.260215	0.221829
H16	H	0.130704	0.215243	0.195662
H17	H	0.303163	0.242038	0.467467
H18	H	0.250634	0.285417	0.442758
H19	H	0.034089	0.043752	0.323420
H20	H	0.204703	0.022342	0.451389
H21	H	0.329804	0.231124	0.120232
H22	H	0.334854	0.283596	0.059770
N1	N	0.154069	0.421741	0.351814
N2	N	0.026624	0.075827	0.099125
N3	N	0.092730	0.326031	0.355351
N4	N	0.471302	0.174904	0.098538
N5	N	0.152135	0.009030	0.077704
N6	N	0.141875	0.248181	0.222275
N7	N	0.263965	0.252867	0.468916
N8	N	0.019064	0.011678	0.348154
N9	N	0.241674	0.006099	0.458558
N10	N	0.350052	0.251076	0.084610
Ni1	Ni	0.123593	0.374914	0.421669
Ni2	Ni	0.000082	0.125388	0.165960
O1	O	0.066374	0.173264	0.190750
O2	O	0.186836	0.324870	0.441180
O3	O	0.060984	0.426311	0.436795
O4	O	0.110670	0.317833	0.489509
O5	O	0.011659	0.070029	0.238405
O6	O	0.136843	0.431299	0.490554
O7	O	0.434298	0.080367	0.190119
O8	O	0.489517	0.180167	0.237143
C25	C	0.196249	0.002106	0.769943
C26	C	0.067224	0.492630	0.521667
C27	C	0.230654	0.232152	0.511806
C28	C	0.248496	0.189654	0.552947
C29	C	0.165767	0.184333	0.600645
C30	C	0.145408	0.226575	0.563068
C31	C	0.177667	0.252503	0.518775
C32	C	0.217413	0.046921	0.732073
C33	C	0.391593	0.488744	0.761995
C34	C	0.273023	0.020262	0.508768
C35	C	0.471990	0.491712	0.828228
C36	C	0.352444	0.013045	0.576156
C37	C	0.359027	0.254166	0.775992
C38	C	0.378059	0.297328	0.815518
C39	C	0.373964	0.446410	0.800539
C40	C	0.255653	0.061601	0.550589
C41	C	0.451597	0.447962	0.864489
C42	C	0.331877	0.053040	0.616216
C43	C	0.291727	0.317355	0.846367
C44	C	0.269906	0.276070	0.808371
C45	C	0.302683	0.243852	0.771278
C46	C	0.342788	0.450869	0.982106
C47	C	0.281327	0.199517	0.731693
C48	C	0.410241	0.305012	0.982965
H23	H	0.010455	0.261028	0.982263
H24	H	0.217850	0.081825	0.540271
H25	H	0.141263	0.163323	0.635281
H26	H	0.227175	0.268354	0.810507
H27	H	0.104763	0.240203	0.570379
H28	H	0.420710	0.305932	0.819749
H29	H	0.288950	0.174024	0.548790
H30	H	0.335672	0.427044	0.791392
H31	H	0.475289	0.431256	0.904741
H32	H	0.354031	0.067312	0.658775
H33	H	0.266734	0.342416	0.876167
H34	H	0.065184	0.013521	0.734891
H35	H	0.121294	0.047184	0.705820
H36	H	0.166518	0.475938	0.553938
H37	H	0.039329	0.492480	0.885369
H38	H	0.253953	0.474581	0.930701
H39	H	0.434582	0.222356	0.752146
H40	H	0.376831	0.190553	0.722012
N11	N	0.217375	0.168088	0.597986
N12	N	0.403668	0.427014	0.851386
N13	N	0.283593	0.076026	0.603797
N14	N	0.345052	0.327354	0.850322
N15	N	0.105868	0.015556	0.731035
N16	N	0.393417	0.222306	0.746889
Ni3	Ni	0.249772	0.122474	0.669916
Ni4	Ni	0.375262	0.377678	0.917532
O9	O	0.188828	0.070640	0.686362
O10	O	0.233893	0.181483	0.737110
O11	O	0.310092	0.175507	0.688292
O12	O	0.438163	0.330005	0.940964
O13	O	0.313484	0.427962	0.937466
O14	O	0.361262	0.321003	0.987013
O15	O	0.264137	0.066085	0.741189
O16	O	0.390261	0.432221	0.988887
C49	C	0.196249	0.502106	0.269943
C50	C	0.067224	0.992630	0.021667
C51	C	0.230654	0.732152	0.011806
C52	C	0.248496	0.689654	0.052947
C53	C	0.165767	0.684333	0.100645
C54	C	0.145408	0.726575	0.063068
C55	C	0.177667	0.752503	0.018775
C56	C	0.217413	0.546921	0.232073
C57	C	0.391593	0.988744	0.261995
C58	C	0.273023	0.520262	0.008768
C59	C	0.471990	0.991712	0.328228
C60	C	0.352444	0.513046	0.076156
C61	C	0.359027	0.754166	0.275992
C62	C	0.378059	0.797327	0.315518
C63	C	0.373964	0.946411	0.300540
C64	C	0.255653	0.561600	0.050589
C65	C	0.451597	0.947962	0.364489
C66	C	0.331877	0.553040	0.116217
C67	C	0.291727	0.817355	0.346367
C68	C	0.269906	0.776069	0.308371
C69	C	0.302683	0.743853	0.271278
C70	C	0.342788	0.950869	0.482106
C71	C	0.281327	0.699516	0.231693
C72	C	0.410241	0.805012	0.482965
H41	H	0.010455	0.761028	0.482262
H42	H	0.217850	0.581825	0.040271
H43	H	0.141263	0.663323	0.135280
H44	H	0.227175	0.768354	0.310507
H45	H	0.104763	0.740203	0.070379
H46	H	0.420710	0.805932	0.319749
H47	H	0.288950	0.674024	0.048790
H48	H	0.335672	0.927044	0.291392
H49	H	0.475289	0.931256	0.404741
H50	H	0.354031	0.567312	0.158775
H51	H	0.266734	0.842416	0.376167
H52	H	0.065184	0.513521	0.234891
H53	H	0.121294	0.547184	0.205820
H54	H	0.166518	0.975939	0.053938
H55	H	0.039329	0.992480	0.385369
H56	H	0.253953	0.974581	0.430701
H57	H	0.434582	0.722356	0.252146
H58	H	0.376831	0.690553	0.222012
N17	N	0.217375	0.668088	0.097986
N18	N	0.403668	0.927014	0.351386
N19	N	0.283593	0.576026	0.103797
N20	N	0.345052	0.827354	0.350322
N21	N	0.105868	0.515556	0.231035
N22	N	0.393417	0.722306	0.246889
Ni5	Ni	0.249772	0.622474	0.169916
Ni6	Ni	0.375262	0.877678	0.417532
O17	O	0.188828	0.570640	0.186362
O18	O	0.233893	0.681483	0.237110
O19	O	0.310092	0.675507	0.188292
O20	O	0.438163	0.830005	0.440964
O21	O	0.313484	0.927962	0.437466
O22	O	0.361262	0.821003	0.487013
O23	O	0.264137	0.566085	0.241189
O24	O	0.390261	0.932222	0.488887
C73	C	0.140527	0.988797	0.768582
C74	C	0.013270	0.506667	0.518714
C75	C	0.229052	0.972037	0.811339
C76	C	0.101023	0.521593	0.566058
C77	C	0.108249	0.765331	0.766778
C78	C	0.124193	0.807819	0.808777
C79	C	0.121592	0.947594	0.810078
C80	C	0.493850	0.547519	0.558295
C81	C	0.207177	0.932462	0.850949
C82	C	0.078788	0.565040	0.600881
C83	C	0.043297	0.804718	0.862260
C84	C	0.024879	0.762949	0.822353
C85	C	0.056660	0.741920	0.773857
C86	C	0.088673	0.949047	0.982621
C87	C	0.037773	0.697431	0.732940
C88	C	0.157982	0.799272	0.982436
C89	C	0.441159	0.512463	0.774438
C90	C	0.323172	0.994858	0.522234
C91	C	0.483516	0.742240	0.516118
C92	C	0.002511	0.699897	0.554662
C93	C	0.420536	0.690006	0.603990
C94	C	0.399146	0.734867	0.569756
C95	C	0.431396	0.760867	0.522652
C96	C	0.462042	0.555387	0.733479
H59	H	0.163350	0.826378	0.803985
H60	H	0.043106	0.684940	0.551160
H61	H	0.079329	0.937056	0.809576
H62	H	0.231739	0.909801	0.885244
H63	H	0.104442	0.590159	0.631494
H64	H	0.018943	0.821184	0.900543
H65	H	0.365766	0.502669	0.722392
H66	H	0.484839	0.984800	0.988122
H67	H	0.271619	0.980444	0.815375
H68	H	0.390966	0.995382	0.588704
H69	H	0.451696	0.557963	0.558773
H70	H	0.395278	0.666893	0.635993
H71	H	0.485760	0.746096	0.831714
H72	H	0.172669	0.528395	0.614970
H73	H	0.180739	0.760215	0.721828
H74	H	0.130704	0.715243	0.695662
H75	H	0.303163	0.742039	0.967467
H76	H	0.250634	0.785417	0.942759
H77	H	0.034089	0.543752	0.823420
H78	H	0.204703	0.522342	0.951389
H79	H	0.329804	0.731124	0.620232
H80	H	0.334854	0.783596	0.559770
N23	N	0.154069	0.921741	0.851814
N24	N	0.026624	0.575827	0.599125
N25	N	0.092730	0.826031	0.855351
N26	N	0.471302	0.674905	0.598537
N27	N	0.152135	0.509030	0.577704
N28	N	0.141875	0.748182	0.722275
N29	N	0.263965	0.752867	0.968916
N30	N	0.019064	0.511679	0.848154
N31	N	0.241674	0.506099	0.958557
N32	N	0.350052	0.751076	0.584610
Ni7	Ni	0.123593	0.874915	0.921669
Ni8	Ni	0.000082	0.625388	0.665960
O25	O	0.066374	0.673264	0.690750
O26	O	0.186836	0.824870	0.941180
O27	O	0.060984	0.926311	0.936795
O28	O	0.110670	0.817833	0.989509
O29	O	0.011659	0.570029	0.738406
O30	O	0.136843	0.931299	0.990554
O31	O	0.434298	0.580367	0.690119
O32	O	0.489517	0.680167	0.737143
C97	C	0.640527	0.488797	0.268583
C98	C	0.513270	0.006667	0.018714
C99	C	0.729052	0.472037	0.311339
C100	C	0.601023	0.021593	0.066058
C101	C	0.608249	0.265331	0.266778
C102	C	0.624193	0.307819	0.308777
C103	C	0.621592	0.447594	0.310078
C104	C	0.993850	0.047518	0.058294
C105	C	0.707177	0.432462	0.350949
C106	C	0.578788	0.065040	0.100881
C107	C	0.543297	0.304718	0.362260
C108	C	0.524879	0.262949	0.322352
C109	C	0.556660	0.241920	0.273857
C110	C	0.588673	0.449047	0.482621
C111	C	0.537772	0.197431	0.232940
C112	C	0.657982	0.299272	0.482436
C113	C	0.941159	0.012462	0.274438
C114	C	0.823171	0.494858	0.022234
C115	C	0.983516	0.242240	0.016118
C116	C	0.502511	0.199897	0.054662
C117	C	0.920536	0.190006	0.103990
C118	C	0.899146	0.234867	0.069756
C119	C	0.931396	0.260867	0.022652
C120	C	0.962042	0.055386	0.233479
H81	H	0.663350	0.326378	0.303985
H82	H	0.543106	0.184940	0.051159
H83	H	0.579330	0.437056	0.309576
H84	H	0.731739	0.409801	0.385244
H85	H	0.604442	0.090160	0.131494
H86	H	0.518943	0.321184	0.400543
H87	H	0.865766	0.002669	0.222392
H88	H	0.984838	0.484800	0.488122
H89	H	0.771619	0.480444	0.315375
H90	H	0.890966	0.495382	0.088705
H91	H	0.951696	0.057963	0.058772
H92	H	0.895278	0.166893	0.135993
H93	H	0.985760	0.246096	0.331714
H94	H	0.672669	0.028395	0.114970
H95	H	0.680740	0.260215	0.221829
H96	H	0.630704	0.215243	0.195662
H97	H	0.803163	0.242038	0.467467
H98	H	0.750633	0.285417	0.442758
H99	H	0.534088	0.043752	0.323420
H100	H	0.704703	0.022342	0.451389
H101	H	0.829804	0.231124	0.120232
H102	H	0.834855	0.283596	0.059770
N33	N	0.654069	0.421741	0.351814
N34	N	0.526624	0.075827	0.099125
N35	N	0.592731	0.326031	0.355351
N36	N	0.971302	0.174904	0.098538
N37	N	0.652135	0.009030	0.077704
N38	N	0.641876	0.248181	0.222275
N39	N	0.763965	0.252867	0.468916
N40	N	0.519064	0.011678	0.348154
N41	N	0.741675	0.006099	0.458558
N42	N	0.850051	0.251076	0.084610
Ni9	Ni	0.623593	0.374914	0.421669
Ni10	Ni	0.500082	0.125388	0.165960
O33	O	0.566374	0.173264	0.190750
O34	O	0.686836	0.324870	0.441180
O35	O	0.560983	0.426311	0.436795
O36	O	0.610669	0.317833	0.489509
O37	O	0.511660	0.070029	0.238405
O38	O	0.636843	0.431299	0.490554
O39	O	0.934298	0.080367	0.190119
O40	O	0.989518	0.180167	0.237143
C121	C	0.696249	0.002106	0.769943
C122	C	0.567223	0.492630	0.521667
C123	C	0.730654	0.232152	0.511806
C124	C	0.748495	0.189654	0.552947
C125	C	0.665767	0.184333	0.600645
C126	C	0.645408	0.226575	0.563068
C127	C	0.677667	0.252503	0.518775
C128	C	0.717413	0.046921	0.732073
C129	C	0.891593	0.488744	0.761995
C130	C	0.773023	0.020262	0.508768
C131	C	0.971990	0.491712	0.828228
C132	C	0.852444	0.013045	0.576156
C133	C	0.859028	0.254166	0.775992
C134	C	0.878059	0.297328	0.815518
C135	C	0.873964	0.446410	0.800539
C136	C	0.755653	0.061601	0.550589
C137	C	0.951597	0.447962	0.864489
C138	C	0.831877	0.053040	0.616216
C139	C	0.791727	0.317355	0.846367
C140	C	0.769907	0.276070	0.808371
C141	C	0.802683	0.243852	0.771278
C142	C	0.842788	0.450869	0.982106
C143	C	0.781327	0.199517	0.731693
C144	C	0.910241	0.305012	0.982965
H103	H	0.510455	0.261028	0.982263
H104	H	0.717850	0.081825	0.540271
H105	H	0.641263	0.163323	0.635281
H106	H	0.727175	0.268354	0.810507
H107	H	0.604763	0.240203	0.570379
H108	H	0.920710	0.305932	0.819749
H109	H	0.788950	0.174024	0.548790
H110	H	0.835672	0.427044	0.791392
H111	H	0.975289	0.431256	0.904741
H112	H	0.854031	0.067312	0.658775
H113	H	0.766733	0.342416	0.876167
H114	H	0.565184	0.013521	0.734891
H115	H	0.621294	0.047184	0.705820
H116	H	0.666517	0.475938	0.553938
H117	H	0.539328	0.492480	0.885369
H118	H	0.753953	0.474581	0.930701
H119	H	0.934582	0.222356	0.752146
H120	H	0.876831	0.190553	0.722012
N43	N	0.717375	0.168088	0.597986
N44	N	0.903668	0.427014	0.851386
N45	N	0.783593	0.076026	0.603797
N46	N	0.845052	0.327354	0.850322
N47	N	0.605868	0.015556	0.731035
N48	N	0.893417	0.222306	0.746889
Ni11	Ni	0.749772	0.122474	0.669916
Ni12	Ni	0.875263	0.377678	0.917532
O41	O	0.688828	0.070640	0.686362
O42	O	0.733893	0.181483	0.737110
O43	O	0.810092	0.175507	0.688292
O44	O	0.938163	0.330005	0.940964
O45	O	0.813484	0.427962	0.937466
O46	O	0.861262	0.321003	0.987013
O47	O	0.764137	0.066085	0.741189
O48	O	0.890261	0.432221	0.988887
C145	C	0.696249	0.502106	0.269943
C146	C	0.567223	0.992630	0.021667
C147	C	0.730654	0.732152	0.011806
C148	C	0.748495	0.689654	0.052947
C149	C	0.665767	0.684333	0.100645
C150	C	0.645408	0.726575	0.063068
C151	C	0.677667	0.752503	0.018775
C152	C	0.717413	0.546921	0.232073
C153	C	0.891593	0.988744	0.261995
C154	C	0.773023	0.520262	0.008768
C155	C	0.971990	0.991712	0.328228
C156	C	0.852444	0.513046	0.076156
C157	C	0.859028	0.754166	0.275992
C158	C	0.878059	0.797327	0.315518
C159	C	0.873964	0.946411	0.300540
C160	C	0.755653	0.561600	0.050589
C161	C	0.951597	0.947962	0.364489
C162	C	0.831877	0.553040	0.116217
C163	C	0.791727	0.817355	0.346367
C164	C	0.769907	0.776069	0.308371
C165	C	0.802683	0.743853	0.271278
C166	C	0.842788	0.950869	0.482106
C167	C	0.781327	0.699516	0.231693
C168	C	0.910241	0.805012	0.482965
H121	H	0.510455	0.761028	0.482262
H122	H	0.717850	0.581825	0.040271
H123	H	0.641263	0.663323	0.135280
H124	H	0.727175	0.768354	0.310507
H125	H	0.604763	0.740203	0.070379
H126	H	0.920710	0.805932	0.319749
H127	H	0.788950	0.674024	0.048790
H128	H	0.835672	0.927044	0.291392
H129	H	0.975289	0.931256	0.404741
H130	H	0.854031	0.567312	0.158775
H131	H	0.766733	0.842416	0.376167
H132	H	0.565184	0.513521	0.234891
H133	H	0.621294	0.547184	0.205820
H134	H	0.666517	0.975939	0.053938
H135	H	0.539328	0.992480	0.385369
H136	H	0.753953	0.974581	0.430701
H137	H	0.934582	0.722356	0.252146
H138	H	0.876831	0.690553	0.222012
N49	N	0.717375	0.668088	0.097986
N50	N	0.903668	0.927014	0.351386
N51	N	0.783593	0.576026	0.103797
N52	N	0.845052	0.827354	0.350322
N53	N	0.605868	0.515556	0.231035
N54	N	0.893417	0.722306	0.246889
Ni13	Ni	0.749772	0.622474	0.169916
Ni14	Ni	0.875263	0.877678	0.417532
O49	O	0.688828	0.570640	0.186362
O50	O	0.733893	0.681483	0.237110
O51	O	0.810092	0.675507	0.188292
O52	O	0.938163	0.830005	0.440964
O53	O	0.813484	0.927962	0.437466
O54	O	0.861262	0.821003	0.487013
O55	O	0.764137	0.566085	0.241189
O56	O	0.890261	0.932222	0.488887
C169	C	0.640527	0.988797	0.768582
C170	C	0.513270	0.506667	0.518714
C171	C	0.729052	0.972037	0.811339
C172	C	0.601023	0.521593	0.566058
C173	C	0.608249	0.765331	0.766778
C174	C	0.624193	0.807819	0.808777
C175	C	0.621592	0.947594	0.810078
C176	C	0.993850	0.547519	0.558295
C177	C	0.707177	0.932462	0.850949
C178	C	0.578788	0.565040	0.600881
C179	C	0.543297	0.804718	0.862260
C180	C	0.524879	0.762949	0.822353
C181	C	0.556660	0.741920	0.773857
C182	C	0.588673	0.949047	0.982621
C183	C	0.537772	0.697431	0.732940
C184	C	0.657982	0.799272	0.982436
C185	C	0.941159	0.512463	0.774438
C186	C	0.823171	0.994858	0.522234
C187	C	0.983516	0.742240	0.516118
C188	C	0.502511	0.699897	0.554662
C189	C	0.920536	0.690006	0.603990
C190	C	0.899146	0.734867	0.569756
C191	C	0.931396	0.760867	0.522652
C192	C	0.962042	0.555387	0.733479
H139	H	0.663350	0.826378	0.803985
H140	H	0.543106	0.684940	0.551160
H141	H	0.579330	0.937056	0.809576
H142	H	0.731739	0.909801	0.885244
H143	H	0.604442	0.590159	0.631494
H144	H	0.518943	0.821184	0.900543
H145	H	0.865766	0.502669	0.722392
H146	H	0.984838	0.984800	0.988122
H147	H	0.771619	0.980444	0.815375
H148	H	0.890966	0.995382	0.588704
H149	H	0.951696	0.557963	0.558773
H150	H	0.895278	0.666893	0.635993
H151	H	0.985760	0.746096	0.831714
H152	H	0.672669	0.528395	0.614970
H153	H	0.680740	0.760215	0.721828
H154	H	0.630704	0.715243	0.695662
H155	H	0.803163	0.742039	0.967467
H156	H	0.750633	0.785417	0.942759
H157	H	0.534088	0.543752	0.823420
H158	H	0.704703	0.522342	0.951389
H159	H	0.829804	0.731124	0.620232
H160	H	0.834855	0.783596	0.559770
N55	N	0.654069	0.921741	0.851814
N56	N	0.526624	0.575827	0.599125
N57	N	0.592731	0.826031	0.855351
N58	N	0.971302	0.674905	0.598537
N59	N	0.652135	0.509030	0.577704
N60	N	0.641876	0.748182	0.722275
N61	N	0.763965	0.752867	0.968916
N62	N	0.519064	0.511679	0.848154
N63	N	0.741675	0.506099	0.958557
N64	N	0.850051	0.751076	0.584610
Ni15	Ni	0.623593	0.874915	0.921669
Ni16	Ni	0.500082	0.625388	0.665960
O57	O	0.566374	0.673264	0.690750
O58	O	0.686836	0.824870	0.941180
O59	O	0.560983	0.926311	0.936795
O60	O	0.610669	0.817833	0.989509
O61	O	0.511660	0.570029	0.738406
O62	O	0.636843	0.931299	0.990554
O63	O	0.934298	0.580367	0.690119
O64	O	0.989518	0.680167	0.737143

loop_
_geom_bond_atom_site_label_1
_geom_bond_atom_site_label_2
_geom_bond_distance
C1	C7	0.06147
C1	C49	0.05731
C1	N21	0.05768
C3	C9	0.06011
C3	H9	0.04358
C3	C49	0.06078
C4	C10	0.05996
C4	N5	0.05391
C5	C6	0.06183
C5	C13	0.05709
C5	N6	0.05836
C6	H1	0.04360
C6	N3	0.05908
C7	H3	0.04356
C7	N1	0.05887
C8	H11	0.04343
C8	C98	0.06011
C8	N34	0.05952
C9	H4	0.04788
C9	N1	0.05419
C10	H5	0.04718
C10	N2	0.05330
C11	C12	0.06063
C11	H6	0.04827
C11	N3	0.05427
C12	C13	0.06168
C13	C15	0.06333
C14	O3	0.05817
C14	O6	0.05194
C14	C26	0.06232
C15	O1	0.05641
C16	O2	0.05648
C16	O4	0.05131
C16	C31	0.06241
C17	C24	0.06290
C18	C58	0.05781
C18	C60	0.06399
C19	C23	0.05573
C19	C116	0.06033
C20	H2	0.04340
C21	C22	0.06035
C21	H12	0.04687
C21	N4	0.05324
C22	C23	0.06273
C22	N10	0.05379
C24	O7	0.05722
C24	O37	0.05197
H8	C170	0.04714
H10	C60	0.04420
H13	C108	0.04361
H14	N5	0.04675
H15	N6	0.04069
H16	N6	0.04379
H17	N7	0.04069
H18	N7	0.04383
H19	N8	0.04320
H20	N9	0.04101
H21	N10	0.04557
H22	N10	0.04365
N1	Ni1	0.08945
N2	Ni2	0.08734
N3	Ni1	0.08798
N4	C116	0.05936
N4	Ni10	0.08846
N7	C27	0.05812
N9	C34	0.06086
Ni1	O2	0.08298
Ni1	O3	0.08240
Ni1	O4	0.08960
Ni1	O6	0.09000
Ni2	O1	0.08545
Ni2	O5	0.09191
O6	H36	0.08301
O7	Ni10	0.08330
O8	C111	0.05142
O8	Ni10	0.09044
C25	C32	0.06237
C26	C74	0.05583
C26	C76	0.06286
C27	C28	0.06178
C27	C31	0.05719
C28	H29	0.04357
C28	N11	0.05884
C29	C30	0.06009
C29	H25	0.04734
C29	N11	0.05417
C30	C31	0.06062
C30	H27	0.04349
C32	O9	0.05890
C32	O15	0.05132
C33	C39	0.05990
C33	C89	0.05634
C33	H65	0.04929
C34	C40	0.06131
C35	C41	0.06037
C35	C89	0.06538
C35	N62	0.05488
C36	C42	0.06023
C37	C38	0.06154
C37	C45	0.05747
C37	N16	0.05518
C38	H28	0.04372
C38	N14	0.05659
C39	H30	0.04388
C39	N12	0.06200
C40	H24	0.04410
C40	N13	0.06181
C41	H31	0.04960
C41	N12	0.05392
C42	H32	0.05006
C42	N13	0.05490
C43	C44	0.06020
C43	H33	0.04627
C43	N14	0.05440
C44	C45	0.05906
C44	H26	0.04347
C45	C47	0.06316
C46	O13	0.05811
C46	O16	0.05145
C47	O10	0.05104
C47	O11	0.05734
C48	O12	0.05629
C48	O14	0.05168
H34	N15	0.04092
H35	N15	0.04329
H36	N27	0.04321
H37	N30	0.04652
H38	N31	0.04382
H39	N16	0.04150
H40	N16	0.04361
N11	Ni3	0.09113
N12	Ni4	0.08727
N13	Ni3	0.08760
N14	Ni4	0.08923
Ni3	O9	0.08168
Ni3	O10	0.09083
Ni3	O11	0.08239
Ni3	O15	0.09201
Ni4	O12	0.08233
Ni4	O13	0.08211
Ni4	O14	0.09075
Ni4	O16	0.09106
C49	C56	0.06237
C51	C52	0.06178
C51	C55	0.05719
C52	H47	0.04357
C52	N17	0.05884
C53	C54	0.06009
C53	H43	0.04734
C53	N17	0.05417
C54	C55	0.06062
C54	H45	0.04349
C56	O17	0.05890
C56	O23	0.05132
C57	C63	0.05990
C58	C64	0.06131
C59	C65	0.06037
C60	C66	0.06023
C61	C62	0.06154
C61	C69	0.05747
C61	N22	0.05518
C62	H46	0.04372
C62	N20	0.05659
C63	H48	0.04388
C63	N18	0.06200
C64	H42	0.04410
C64	N19	0.06181
C65	H49	0.04960
C65	N18	0.05392
C66	H50	0.05006
C66	N19	0.05490
C67	C68	0.06020
C67	H51	0.04627
C67	N20	0.05440
C68	C69	0.05906
C68	H44	0.04347
C69	C71	0.06316
C70	O21	0.05811
C70	O24	0.05145
C70	C90	0.06269
C71	O18	0.05104
C71	O19	0.05734
C72	O20	0.05629
C72	O22	0.05168
C72	C95	0.06302
H52	N21	0.04092
H53	N21	0.04329
H57	N22	0.04150
H58	N22	0.04361
N17	Ni5	0.09113
N18	Ni6	0.08727
N19	Ni5	0.08760
N20	Ni6	0.08923
Ni5	O17	0.08168
Ni5	O18	0.09083
Ni5	O19	0.08239
Ni5	O23	0.09201
Ni6	O20	0.08233
Ni6	O21	0.08211
Ni6	O22	0.09075
Ni6	O24	0.09106
O22	H80	0.08597
C73	C79	0.06147
C75	C81	0.06011
C75	H67	0.04358
C76	C82	0.05996
C76	N27	0.05391
C77	C78	0.06183
C77	C85	0.05709
C77	N28	0.05836
C78	H59	0.04360
C78	N25	0.05908
C79	H61	0.04356
C79	N23	0.05887
C80	H69	0.04343
C80	C170	0.06011
C80	N56	0.05952
C81	H62	0.04788
C81	N23	0.05419
C82	H63	0.04718
C82	N24	0.05330
C83	C84	0.06063
C83	H64	0.04827
C83	N25	0.05427
C84	C85	0.06168
C85	C87	0.06333
C86	O27	0.05817
C86	O30	0.05194
C87	O25	0.05641
C88	O26	0.05648
C88	O28	0.05131
C89	C96	0.06290
C91	C95	0.05573
C91	H121	0.04717
C91	C188	0.06033
C92	H60	0.04340
C93	C94	0.06035
C93	H70	0.04687
C93	N26	0.05324
C94	C95	0.06273
C94	N32	0.05379
C96	O31	0.05722
C96	O61	0.05197
H71	C180	0.04361
H72	N27	0.04675
H73	N28	0.04069
H74	N28	0.04379
H75	N29	0.04069
H76	N29	0.04383
H77	N30	0.04320
H78	N31	0.04101
H79	N32	0.04557
H80	N32	0.04365
N23	Ni7	0.08945
N24	Ni8	0.08734
N25	Ni7	0.08798
N26	C188	0.05936
N26	Ni16	0.08846
Ni7	O26	0.08298
Ni7	O27	0.08240
Ni7	O28	0.08960
Ni7	O30	0.09000
Ni8	O25	0.08545
Ni8	O29	0.09191
O31	Ni16	0.08330
O32	C183	0.05142
O32	Ni16	0.09044
C97	C103	0.06147
C97	C145	0.05731
C97	N53	0.05768
C99	C105	0.06011
C99	H89	0.04358
C99	C145	0.06078
C100	C106	0.05996
C100	N37	0.05391
C101	C102	0.06183
C101	C109	0.05709
C101	N38	0.05836
C102	H81	0.04360
C102	N35	0.05908
C103	H83	0.04356
C103	N33	0.05887
C104	H91	0.04343
C105	H84	0.04788
C105	N33	0.05419
C106	H85	0.04718
C106	N34	0.05330
C107	C108	0.06063
C107	H86	0.04827
C107	N35	0.05427
C108	C109	0.06168
C109	C111	0.06333
C110	O35	0.05817
C110	O38	0.05194
C110	C122	0.06232
C111	O33	0.05641
C112	O34	0.05648
C112	O36	0.05131
C112	C127	0.06241
C113	C120	0.06290
C114	C154	0.05781
C114	C156	0.06399
C115	C119	0.05573
C116	H82	0.04340
C117	C118	0.06035
C117	H92	0.04687
C117	N36	0.05324
C118	C119	0.06273
C118	N42	0.05379
C120	O39	0.05722
H90	C156	0.04420
H94	N37	0.04675
H95	N38	0.04069
H96	N38	0.04379
H97	N39	0.04069
H98	N39	0.04383
H99	N40	0.04320
H100	N41	0.04101
H101	N42	0.04557
H102	N42	0.04365
N33	Ni9	0.08945
N34	Ni10	0.08734
N35	Ni9	0.08798
N39	C123	0.05812
N41	C130	0.06086
Ni9	O34	0.08298
Ni9	O35	0.08240
Ni9	O36	0.08960
Ni9	O38	0.09000
Ni10	O33	0.08545
Ni10	O37	0.09191
O38	H116	0.08301
C121	C128	0.06237
C122	C170	0.05583
C122	C172	0.06286
C123	C124	0.06178
C123	C127	0.05719
C124	H109	0.04357
C124	N43	0.05884
C125	C126	0.06009
C125	H105	0.04734
C125	N43	0.05417
C126	C127	0.06062
C126	H107	0.04349
C128	O41	0.05890
C128	O47	0.05132
C129	C135	0.05990
C129	C185	0.05634
C129	H145	0.04929
C130	C136	0.06131
C131	C137	0.06037
C131	C185	0.06538
C132	C138	0.06023
C133	C134	0.06154
C133	C141	0.05747
C133	N48	0.05518
C134	H108	0.04372
C134	N46	0.05659
C135	H110	0.04388
C135	N44	0.06200
C136	H104	0.04410
C136	N45	0.06181
C137	H111	0.04960
C137	N44	0.05392
C138	H112	0.05006
C138	N45	0.05490
C139	C140	0.06020
C139	H113	0.04627
C139	N46	0.05440
C140	C141	0.05906
C140	H106	0.04347
C141	C143	0.06316
C142	O45	0.05811
C142	O48	0.05145
C143	O42	0.05104
C143	O43	0.05734
C144	O44	0.05629
C144	O46	0.05168
H114	N47	0.04092
H115	N47	0.04329
H116	N59	0.04321
H117	N62	0.04652
H118	N63	0.04382
H119	N48	0.04150
H120	N48	0.04361
N43	Ni11	0.09113
N44	Ni12	0.08727
N45	Ni11	0.08760
N46	Ni12	0.08923
Ni11	O41	0.08168
Ni11	O42	0.09083
Ni11	O43	0.08239
Ni11	O47	0.09201
Ni12	O44	0.08233
Ni12	O45	0.08211
Ni12	O46	0.09075
Ni12	O48	0.09106
C145	C152	0.06237
C147	C148	0.06178
C147	C151	0.05719
C148	H127	0.04357
C148	N49	0.05884
C149	C150	0.06009
C149	H123	0.04734
C149	N49	0.05417
C150	C151	0.06062
C150	H125	0.04349
C152	O49	0.05890
C152	O55	0.05132
C153	C159	0.05990
C154	C160	0.06131
C155	C161	0.06037
C156	C162	0.06023
C157	C158	0.06154
C157	C165	0.05747
C157	N54	0.05518
C158	H126	0.04372
C158	N52	0.05659
C159	H128	0.04388
C159	N50	0.06200
C160	H122	0.04410
C160	N51	0.06181
C161	H129	0.04960
C161	N50	0.05392
C162	H130	0.05006
C162	N51	0.05490
C163	C164	0.06020
C163	H131	0.04627
C163	N52	0.05440
C164	C165	0.05906
C164	H124	0.04347
C165	C167	0.06316
C166	O53	0.05811
C166	O56	0.05145
C166	C186	0.06269
C167	O50	0.05104
C167	O51	0.05734
C168	O52	0.05629
C168	O54	0.05168
C168	C191	0.06302
H132	N53	0.04092
H133	N53	0.04329
H137	N54	0.04150
H138	N54	0.04361
N49	Ni13	0.09113
N50	Ni14	0.08727
N51	Ni13	0.08760
N52	Ni14	0.08923
Ni13	O49	0.08168
Ni13	O50	0.09083
Ni13	O51	0.08239
Ni13	O55	0.09201
Ni14	O52	0.08233
Ni14	O53	0.08211
Ni14	O54	0.09075
Ni14	O56	0.09106
O54	H160	0.08597
C169	C175	0.06147
C171	C177	0.06011
C171	H147	0.04358
C172	C178	0.05996
C172	N59	0.05391
C173	C174	0.06183
C173	C181	0.05709
C173	N60	0.05836
C174	H139	0.04360
C174	N57	0.05908
C175	H141	0.04356
C175	N55	0.05887
C176	H149	0.04343
C177	H142	0.04788
C177	N55	0.05419
C178	H143	0.04718
C178	N56	0.05330
C179	C180	0.06063
C179	H144	0.04827
C179	N57	0.05427
C180	C181	0.06168
C181	C183	0.06333
C182	O59	0.05817
C182	O62	0.05194
C183	O57	0.05641
C184	O58	0.05648
C184	O60	0.05131
C185	C192	0.06290
C187	C191	0.05573
C188	H140	0.04340
C189	C190	0.06035
C189	H150	0.04687
C189	N58	0.05324
C190	C191	0.06273
C190	N64	0.05379
C192	O63	0.05722
H152	N59	0.04675
H153	N60	0.04069
H154	N60	0.04379
H155	N61	0.04069
H156	N61	0.04383
H157	N62	0.04320
H158	N63	0.04101
H159	N64	0.04557
H160	N64	0.04365
N55	Ni15	0.08945
N56	Ni16	0.08734
N57	Ni15	0.08798
Ni15	O58	0.08298
Ni15	O59	0.08240
Ni15	O60	0.08960
Ni15	O62	0.09000
Ni16	O57	0.08545
Ni16	O61	0.09191
