data_NiPyC2_relax_sc211_meta_functionalized_CH3_pbesol_relax_PM
_symmetry_space_group_name_H-M	'P1'
_cell_length_a	12.505617
_cell_length_b	12.523412
_cell_length_c	10.276810
_cell_angle_alpha	90.000000
_cell_angle_beta	91.268973
_cell_angle_gamma	90.000000
_symmetry_Int_Tables_number 1

loop_
_symmetry_equiv_pos_as_xyz
'x,y,z'

loop_
_atom_site_label
_atom_site_type_symbol
_atom_site_fract_x
_atom_site_fract_y
_atom_site_fract_z
C1	C	0.277978	0.966749	0.538805
C2	C	0.025417	-0.003445	0.039283
C3	C	0.386199	0.000775	0.550365
C4	C	0.133821	0.969711	0.044009
C5	C	0.454890	0.943022	0.632828
C6	C	0.204579	0.030350	0.124596
C7	C	0.205122	0.522975	0.519993
C8	C	0.444909	0.439726	0.020085
C9	C	0.242317	0.604881	0.601720
C10	C	0.484385	0.367235	0.115702
C11	C	0.243898	0.884738	0.624320
C12	C	-0.011139	0.084460	0.110093
C13	C	0.414413	0.861943	0.712752
C14	C	0.161037	0.121497	0.187713
C15	C	0.092645	0.589193	0.730968
C16	C	0.340930	0.395318	0.250555
C17	C	0.052792	0.499108	0.660113
C18	C	0.298946	0.473358	0.165659
C19	C	0.109935	0.469985	0.547122
C20	C	0.352680	0.499168	0.052062
C21	C	0.428043	0.095405	0.481003
C22	C	0.173956	0.879352	0.967079
C23	C	0.070458	0.386501	0.456744
C24	C	0.312315	0.587517	0.969267
C25	C	0.794173	0.973681	0.512084
C26	C	0.549534	0.061871	0.017746
C27	C	0.890104	0.026305	0.541920
C28	C	0.643621	1.003884	0.051054
C29	C	0.947559	0.998289	0.658113
C30	C	0.698470	0.029160	0.166955
C31	C	0.720982	0.533541	0.542811
C32	C	0.971239	0.503353	0.039885
C33	C	0.753619	0.618268	0.627061
C34	C	1.008444	0.414407	0.110330
C35	C	0.755248	0.895295	0.595798
C36	C	0.510973	0.133569	0.112860
C37	C	0.905608	0.911655	0.731396
C38	C	0.656323	0.105415	0.251983
C39	C	0.584256	0.636011	0.711729
C40	C	0.838456	0.381743	0.188931
C41	C	0.545125	0.552165	0.633143
C42	C	0.794140	0.473116	0.124768
C43	C	0.613948	0.496617	0.552275
C44	C	0.863547	0.532480	0.044619
C45	C	0.929882	0.109028	0.452543
C46	C	0.684545	0.917615	0.967460
C47	C	0.573208	0.401137	0.481936
C48	C	0.823315	0.624188	0.967713
C49	C	0.201124	0.005455	0.443611
C50	C	0.315176	1.001252	0.151550
C51	C	0.962794	0.441128	0.712290
C52	C	0.500772	0.446011	0.898013
C53	C	0.040731	0.053946	0.710487
C54	C	0.489905	1.054180	0.895355
C55	C	0.797711	0.494080	0.451917
C56	C	0.684196	0.502569	0.149633
H1	H	0.252261	0.501810	0.436532
H2	H	0.028586	0.549620	0.985878
H3	H	0.317296	0.646144	0.585545
H4	H	0.092066	0.390759	0.110633
H5	H	0.160388	0.860633	0.622945
H6	H	0.436190	0.174955	0.093540
H7	H	0.465244	0.821656	0.784027
H8	H	0.212944	0.171815	0.247891
H9	H	0.047082	0.621221	0.810937
H10	H	0.300076	0.371259	0.337887
H11	H	0.461786	0.529231	0.640425
H12	H	0.225136	0.513496	0.190526
H13	H	0.747370	0.992279	0.425041
H14	H	0.966638	-0.050447	0.985560
H15	H	0.539346	0.962404	0.641009
H16	H	0.773296	0.990107	0.193949
H17	H	0.836268	0.645022	0.627449
H18	H	0.558909	0.325902	0.098431
H19	H	0.679540	0.854808	0.577299
H20	H	0.904794	0.106127	0.111113
H21	H	0.951482	0.880474	0.814006
H22	H	0.697965	0.129084	0.341040
H23	H	0.533603	0.675645	0.781034
H24	H	0.787938	0.333130	0.250201
H25	H	0.120281	0.977883	0.460630
H26	H	0.205609	0.092571	0.435430
H27	H	0.225394	0.977090	0.347411
H28	H	0.352834	0.053474	0.223705
H29	H	0.321370	0.917731	0.183607
H30	H	0.359315	0.000338	0.060294
H31	H	0.920069	0.487479	0.784161
H32	H	0.993078	0.367569	0.759699
H33	H	0.909828	0.410721	0.634444
H34	H	0.566229	0.389099	0.892402
H35	H	0.531747	0.527749	0.886682
H36	H	0.444754	0.436515	0.815298
H37	H	0.082094	1.008222	0.786189
H38	H	0.014740	0.130529	0.752649
H39	H	0.094125	1.079018	0.633104
H40	H	0.424821	0.111608	0.887519
H41	H	0.456810	0.972802	0.886834
H42	H	0.543192	0.060876	0.812652
H43	H	0.877852	0.525247	0.469259
H44	H	0.796762	0.406541	0.448877
H45	H	0.770435	0.516497	0.353179
H46	H	0.647918	0.450267	0.220962
H47	H	0.678953	0.586243	0.181118
H48	H	0.637814	0.503244	0.057505
N1	N	0.309780	0.835288	0.709055
N2	N	0.056552	0.145387	0.182892
N3	N	0.185575	0.637098	0.704936
N4	N	0.434302	0.346007	0.226551
N5	N	0.811119	0.865584	0.703826
N6	N	0.562002	0.153745	0.226087
N7	N	0.687581	0.667013	0.708811
N8	N	0.942077	0.355141	0.183382
Ni1	Ni	0.246304	0.736274	0.836243
Ni2	Ni	0.499214	0.248951	0.358711
Ni3	Ni	0.750112	0.769960	0.836130
Ni4	Ni	0.999446	0.248934	0.308557
O1	O	0.126571	0.346994	0.364981
O2	O	0.368438	0.634790	0.882850
O3	O	0.372315	0.153730	0.400968
O4	O	0.116277	0.828383	0.882341
O5	O	0.477598	0.365807	0.496152
O6	O	0.217455	0.625142	0.979708
O7	O	0.024465	0.148170	0.461228
O8	O	0.271150	0.845742	0.975260
O9	O	0.627776	0.344973	0.401772
O10	O	0.879719	0.673912	0.883749
O11	O	0.873983	0.148028	0.357193
O12	O	0.628193	0.870884	0.877744
O13	O	0.975440	0.348195	0.459933
O14	O	0.727403	0.660494	0.975665
O15	O	0.524740	0.128054	0.496273
O16	O	0.780104	0.881065	0.980235
