data_NiPyC2_relax_sc211_meta_functionalized_N-NH_vdw-df2_relax_PM
_symmetry_space_group_name_H-M	'P1'
_cell_length_a	12.505617
_cell_length_b	12.523412
_cell_length_c	10.276810
_cell_angle_alpha	90.000000
_cell_angle_beta	91.268973
_cell_angle_gamma	90.000000
_symmetry_Int_Tables_number 1

loop_
_symmetry_equiv_pos_as_xyz
'x,y,z'

loop_
_atom_site_label
_atom_site_type_symbol
_atom_site_fract_x
_atom_site_fract_y
_atom_site_fract_z
C1	C	0.309350	0.957829	0.516282
C2	C	0.031457	0.035135	0.029407
C3	C	0.397349	0.017401	0.559822
C4	C	0.131858	0.985069	0.051293
C5	C	0.445841	0.990997	0.680886
C6	C	0.197585	0.025904	0.151783
C7	C	0.213875	0.539874	0.526147
C8	C	0.457564	0.438730	0.001039
C9	C	0.246744	0.623189	0.610088
C10	C	0.490401	0.353909	0.084884
C11	C	0.271946	0.874705	0.592894
C12	C	0.001975	0.121738	0.109691
C13	C	0.404446	0.905730	0.754129
C14	C	0.163295	0.110912	0.228263
C15	C	0.089032	0.608791	0.727999
C16	C	0.330568	0.363826	0.197579
C17	C	0.054467	0.522413	0.652432
C18	C	0.294311	0.448342	0.119268
C19	C	0.117563	0.485437	0.550871
C20	C	0.358972	0.491043	0.022772
C21	C	0.435857	0.107101	0.482817
C22	C	0.172282	0.894713	0.974946
C23	C	0.080273	0.394555	0.473235
C24	C	0.322061	0.588994	0.954227
C25	C	0.782399	0.998445	0.555882
C26	C	0.529655	-0.017738	0.088387
C27	C	0.892318	0.020253	0.556969
C28	C	0.638066	0.953846	0.094692
C29	C	0.958921	0.955616	0.638013
C30	C	0.704904	0.012919	0.182442
C31	C	0.720000	0.540857	0.521083
C32	C	0.966451	0.484784	0.044406
C33	C	0.751646	0.623078	0.608137
C34	C	1.004198	0.401715	0.123197
C35	C	0.743168	0.915412	0.631686
C36	C	0.493871	0.072516	0.153759
C37	C	0.915809	0.868022	0.705184
C38	C	0.664492	0.105270	0.243012
C39	C	0.579071	0.634722	0.690130
C40	C	0.833489	0.369646	0.204820
C41	C	0.543982	0.551024	0.609618
C42	C	0.792171	0.457601	0.134201
C43	C	0.614777	0.499554	0.526129
C44	C	0.858716	0.514902	0.048219
C45	C	0.934886	0.105234	0.474309
C46	C	0.678269	0.876769	1.000083
C47	C	0.576184	0.405647	0.452280
C48	C	0.818088	0.600752	0.963329
H1	H	0.269158	0.976350	0.425659
H2	H	0.473195	-0.063401	1.031622
H3	H	0.274139	0.990265	0.172360
H4	H	0.021258	0.526579	0.983475
H5	H	0.322634	0.661628	0.597524
H6	H	0.086243	0.376825	0.124419
H7	H	0.203662	0.828099	0.563594
H8	H	0.412307	0.098599	0.146839
H9	H	0.441140	0.881613	0.844590
H10	H	0.210471	0.142121	0.307769
H11	H	0.043708	0.639775	0.806691
H12	H	0.284874	0.333733	0.276383
H13	H	0.463366	0.523212	0.617749
H14	H	0.218896	0.484640	0.139599
H15	H	0.727165	1.046491	0.499740
H16	H	0.832975	0.651102	0.610043
H17	H	0.566922	0.316412	0.072832
H18	H	0.659358	0.897002	0.634770
H19	H	0.925505	0.159442	0.095056
H20	H	0.965393	0.817800	0.765831
H21	H	0.714610	0.152870	0.306221
H22	H	0.528119	0.672134	0.759056
H23	H	0.784287	0.325474	0.269954
H24	H	0.979803	0.484411	0.673216
H25	H	0.633368	0.110513	0.844552
H26	H	0.824367	0.009974	0.844652
H27	H	0.399065	0.532302	0.318260
H28	H	0.653291	0.460974	0.807655
H29	H	0.192050	0.054997	0.699447
H30	H	0.932200	0.898123	0.233784
H31	H	0.929948	0.509891	0.353898
H32	H	0.565211	0.570084	0.184476
N1	N	0.317667	0.851363	0.710737
N2	N	0.065918	0.156433	0.206156
N3	N	0.184653	0.656167	0.706175
N4	N	0.430043	0.322270	0.183646
N5	N	0.809286	0.853215	0.706755
N6	N	0.561412	0.133511	0.227274
N7	N	0.682981	0.666024	0.691282
N8	N	0.938511	0.347425	0.203884
N9	N	0.534901	0.048241	0.724503
N10	N	0.557682	1.077579	0.836264
N11	N	0.957660	1.002089	0.934444
N12	N	0.873451	0.050812	0.908827
N13	N	0.278406	0.514050	0.422549
N14	N	0.353602	0.570281	0.386593
N15	N	0.525858	0.470589	0.903113
N16	N	0.608537	0.421835	0.875582
N17	N	0.067521	-0.024726	0.659917
N18	N	0.109876	1.054600	0.708507
N19	N	0.811387	0.988164	0.211338
N20	N	0.849582	-0.100212	0.236360
N21	N	0.795845	0.503312	0.435207
N22	N	0.878294	0.553051	0.409904
N23	N	0.686013	0.483188	0.156658
N24	N	0.647716	0.567388	0.195529
Ni1	Ni	0.247488	0.753081	0.837349
Ni2	Ni	0.498039	0.247645	0.338770
Ni3	Ni	0.746358	0.753079	0.836532
Ni4	Ni	1.003452	0.251722	0.340225
O1	O	0.133732	0.352444	0.380644
O2	O	0.379223	0.641561	0.874351
O3	O	0.376966	0.147829	0.390481
O4	O	0.114954	0.841590	0.891861
O5	O	0.476863	0.376756	0.458938
O6	O	0.227983	0.627467	0.974277
O7	O	0.035017	0.128446	0.471482
O8	O	0.271033	0.864940	0.986911
O9	O	0.634203	0.347049	0.379492
O10	O	0.878344	0.651736	0.884214
O11	O	0.873545	0.160112	0.396559
O12	O	0.616806	0.840005	0.907460
O13	O	0.986854	0.353600	0.491958
O14	O	0.718881	0.628600	0.961436
O15	O	0.529113	0.147985	0.500383
O16	O	0.776931	0.847377	0.995712
