data_NiPyC2_relax_sc211_ortho_functionalized_C-N_pbesol_relax_PM
_symmetry_space_group_name_H-M	'P1'
_cell_length_a	12.505617
_cell_length_b	12.523412
_cell_length_c	10.276810
_cell_angle_alpha	90.000000
_cell_angle_beta	91.268973
_cell_angle_gamma	90.000000
_symmetry_Int_Tables_number 1

loop_
_symmetry_equiv_pos_as_xyz
'x,y,z'

loop_
_atom_site_label
_atom_site_type_symbol
_atom_site_fract_x
_atom_site_fract_y
_atom_site_fract_z
C1	C	0.292109	0.990185	0.544348
C2	C	0.041248	-0.002683	0.046245
C3	C	0.392486	0.037007	0.564170
C4	C	0.149507	0.971663	0.053110
C5	C	0.460789	0.995014	0.660014
C6	C	0.214949	0.023599	0.144691
C7	C	0.221142	0.536632	0.523312
C8	C	0.436261	0.461043	0.010198
C9	C	0.246603	0.624556	0.602188
C10	C	0.482821	0.389037	0.099344
C11	C	0.265797	0.900989	0.620342
C12	C	0.002483	0.076871	0.130308
C13	C	0.429721	0.903779	0.731007
C14	C	0.172517	0.108533	0.217083
C15	C	0.081951	0.616975	0.704488
C16	C	0.336390	0.404040	0.234672
C17	C	0.051293	0.526956	0.630081
C18	C	0.285534	0.477123	0.150391
C19	C	0.123224	0.485943	0.540745
C20	C	0.338235	0.507242	0.038016
C21	C	0.429386	0.126617	0.484236
C22	C	0.193486	0.890212	0.966745
C23	C	0.092339	0.390756	0.466647
C24	C	0.296547	0.590857	0.951312
C25	C	0.808940	0.990518	0.522881
C26	C	0.525670	0.046235	0.025404
C27	C	0.912103	0.027267	0.548335
C28	C	0.624691	0.999301	0.041904
C29	C	0.973218	0.988022	0.652388
C30	C	0.692956	0.032971	0.156547
C31	C	0.686935	0.573021	0.503823
C32	C	0.917994	0.410132	0.007938
C33	C	0.738309	0.648547	0.583984
C34	C	0.979393	0.353979	0.100197
C35	C	0.768470	0.910115	0.602664
C36	C	0.488233	0.124221	0.112155
C37	C	0.927262	0.910143	0.729377
C38	C	0.643305	0.118763	0.239272
C39	C	0.631719	0.602327	0.756662
C40	C	0.855076	0.388890	0.261876
C41	C	0.571332	0.529788	0.680504
C42	C	0.790019	0.448299	0.174937
C43	C	0.603124	0.511987	0.552881
C44	C	0.821372	0.455542	0.045873
C45	C	0.957158	0.107486	0.465046
C46	C	0.659381	0.917658	0.953334
C47	C	0.554915	0.425061	0.473835
C48	C	0.752000	0.500175	0.943204
C49	C	0.508625	0.857466	0.820061
C50	C	0.890287	0.083192	0.136130
C51	C	0.002899	0.659390	0.786854
C52	C	0.580832	0.340962	0.069044
C53	C	0.666092	0.868921	0.572070
C54	C	0.389238	0.171435	0.080928
C55	C	0.616529	0.623686	0.897473
C56	C	0.823320	0.379559	0.392045
H1	H	0.233524	1.020928	0.474369
H2	H	0.472465	0.025203	0.944595
H3	H	0.053650	1.016220	0.673896
H4	H	0.297774	1.000796	0.160247
H5	H	0.279156	0.508247	0.454496
H6	H	-0.055780	0.415537	0.908355
H7	H	0.323690	0.664149	0.596128
H8	H	0.054853	0.316362	0.076152
H9	H	0.188120	0.862870	0.608739
H10	H	0.222971	0.153782	0.284533
H11	H	0.297461	0.376987	0.322075
H12	H	0.506210	0.485210	0.722771
H13	H	0.207551	0.508466	0.174391
H14	H	0.759476	1.022126	0.443704
H15	H	0.984921	-0.044743	0.982600
H16	H	0.538472	1.030375	0.680132
H17	H	0.707953	0.962727	0.220958
H18	H	0.712112	0.564274	0.404234
H19	H	0.477740	0.479274	0.921382
H20	H	0.804060	0.696722	0.549130
H21	H	0.972447	0.875176	0.810062
H22	H	0.691973	0.150583	0.319792
H23	H	0.972739	0.491436	0.642676
H24	H	0.715674	0.481497	0.209421
N1	N	0.331574	0.857402	0.711382
N2	N	0.069106	0.136385	0.209559
N3	N	0.180666	0.663357	0.692597
N4	N	0.432678	0.362534	0.212075
N5	N	0.828602	0.871343	0.705183
N6	N	0.547226	0.157944	0.220375
N7	N	0.710535	0.664715	0.708371
N8	N	0.947308	0.340502	0.222999
N9	N	0.497761	0.760078	0.865649
N10	N	0.798544	0.068391	0.121279
N11	N	0.926635	0.687375	0.840708
N12	N	0.660051	0.298778	0.038970
N13	N	0.581500	0.839290	0.536935
N14	N	0.306299	0.205749	0.045714
N15	N	0.560861	0.706370	0.939157
N16	N	0.792213	0.377900	0.499035
Ni1	Ni	0.256240	0.750471	0.827935
Ni2	Ni	0.492546	0.268916	0.348498
Ni3	Ni	0.791320	0.761977	0.827806
Ni4	Ni	1.025173	0.243821	0.339386
O1	O	0.144155	0.350797	0.371605
O2	O	0.350457	0.621730	0.852510
O3	O	0.370321	0.172917	0.396843
O4	O	0.138677	0.851809	0.869896
O5	O	0.464320	0.383077	0.495498
O6	O	0.210218	0.642501	0.969685
O7	O	0.056036	0.134060	0.472850
O8	O	0.288261	0.852597	0.980125
O9	O	0.603893	0.383231	0.376606
O10	O	0.759142	0.478696	0.829063
O11	O	0.899382	0.156133	0.378162
O12	O	0.599423	0.914613	0.836664
O13	O	1.006363	0.339735	0.491949
O14	O	0.673595	0.572138	0.989852
O15	O	0.524983	0.164058	0.492962
O16	O	0.740596	0.860240	0.965442
