data_NiPyC2_relax_sc211_ortho_functionalized_NH2_vdw-df2_relax_PM
_symmetry_space_group_name_H-M	'P1'
_cell_length_a	12.505617
_cell_length_b	12.523412
_cell_length_c	10.276810
_cell_angle_alpha	90.000000
_cell_angle_beta	91.268973
_cell_angle_gamma	90.000000
_symmetry_Int_Tables_number 1

loop_
_symmetry_equiv_pos_as_xyz
'x,y,z'

loop_
_atom_site_label
_atom_site_type_symbol
_atom_site_fract_x
_atom_site_fract_y
_atom_site_fract_z
C1	C	0.288370	0.956475	0.516570
C2	C	0.058278	0.041253	-0.015933
C3	C	0.382540	0.011221	0.551224
C4	C	0.156121	0.996982	0.020259
C5	C	0.447680	0.974462	0.652795
C6	C	0.214192	0.037620	0.126772
C7	C	0.165939	0.495511	0.564838
C8	C	0.449607	0.461465	0.028240
C9	C	0.220443	0.584331	0.619453
C10	C	0.477825	0.377091	0.110617
C11	C	0.257766	0.869861	0.593182
C12	C	0.016820	0.125021	0.060426
C13	C	0.415483	0.881957	0.720841
C14	C	0.167991	0.119256	0.198828
C15	C	0.073162	0.623805	0.747507
C16	C	0.313078	0.384579	0.214903
C17	C	0.015364	0.536795	0.697399
C18	C	0.280887	0.472135	0.137317
C19	C	0.062106	0.473902	0.601921
C20	C	0.349637	0.509563	0.043909
C21	C	0.413662	0.106377	0.479933
C22	C	0.195043	0.903766	0.951452
C23	C	0.001417	0.387733	0.533911
C24	C	0.314084	0.599668	0.965157
C25	C	0.832389	0.945835	0.494979
C26	C	0.572156	0.050476	0.029022
C27	C	0.934167	-0.017930	0.529944
C28	C	0.677414	1.020669	0.062012
C29	C	0.983534	0.944074	0.644257
C30	C	0.724580	0.055926	0.177735
C31	C	0.676790	0.535241	0.520490
C32	C	0.971556	0.503984	0.046902
C33	C	0.733041	0.609017	0.600527
C34	C	1.006896	0.415874	0.119124
C35	C	0.775045	0.884354	0.585439
C36	C	0.516650	0.115241	0.115075
C37	C	0.925827	0.876068	0.724772
C38	C	0.661895	0.116315	0.264373
C39	C	0.597526	0.603816	0.753764
C40	C	0.840810	0.399658	0.218799
C41	C	0.540062	0.527973	0.681184
C42	C	0.798191	0.485089	0.144231
C43	C	0.579942	0.495038	0.561599
C44	C	0.865479	0.538453	0.060546
C45	C	0.985805	0.068128	0.455201
C46	C	0.736781	0.943268	0.981725
C47	C	0.522137	0.414797	0.482034
C48	C	0.823837	0.628176	0.984566
H1	H	0.238168	0.981926	0.436864
H2	H	0.532891	0.025328	0.940402
H3	H	0.063139	0.967482	0.672470
H4	H	0.290091	1.005104	0.157351
H5	H	0.208257	0.446974	0.497559
H6	H	0.025679	0.543249	0.983108
H7	H	0.085356	0.382757	0.106527
H8	H	0.183097	0.829077	0.575691
H9	H	0.436292	0.141732	0.093291
H10	H	0.206767	0.146714	0.285718
H11	H	0.040670	0.673889	0.821081
H12	H	0.467172	0.496412	0.718379
H13	H	0.204888	0.509643	0.152526
H14	H	0.794227	0.964631	0.403428
H15	H	1.011602	0.011685	0.903028
H16	H	0.521830	1.013309	0.679463
H17	H	0.805001	1.034259	0.205486
H18	H	0.712339	0.511193	0.430957
H19	H	0.504819	0.488839	0.957090
H20	H	0.554976	0.339283	0.105193
H21	H	0.960232	0.845182	0.813132
H22	H	0.569063	0.631233	0.845522
H23	H	0.937270	0.520082	0.733082
H24	H	0.715882	0.508390	0.155076
H25	H	0.453508	0.773274	0.861747
H26	H	0.548754	0.872600	0.841921
H27	H	0.887036	0.222899	0.084696
H28	H	0.875892	0.131283	-0.041575
H29	H	0.362724	0.664266	0.626020
H30	H	0.358102	0.550915	0.527521
H31	H	0.270132	0.289153	0.368446
H32	H	0.176028	0.381934	0.318544
H33	H	0.627685	0.821310	0.628349
H34	H	0.632679	0.891322	0.483199
H35	H	0.652697	0.176796	0.449168
H36	H	0.779212	0.130330	0.403354
H37	H	0.876998	0.685617	0.624982
H38	H	0.864740	0.606523	0.487970
H39	H	0.817024	0.301835	0.372631
H40	H	0.703774	0.367550	0.320769
N1	N	0.317670	0.834074	0.694342
N2	N	0.072003	0.162626	0.168873
N3	N	0.172499	0.648088	0.710138
N4	N	0.412382	0.338596	0.202182
N5	N	0.823470	0.848510	0.698717
N6	N	0.559738	0.148198	0.229289
N7	N	0.690714	0.646459	0.714922
N8	N	0.945245	0.365373	0.205947
N9	N	0.479473	0.837139	0.810841
N10	N	0.921073	0.167014	0.028476
N11	N	0.319528	0.606674	0.580621
N12	N	0.246725	0.345829	0.303604
N13	N	0.671213	0.861144	0.562428
N14	N	0.699719	0.140804	0.383589
N15	N	0.829657	0.642966	0.563711
N16	N	0.780690	0.346529	0.302619
Ni1	Ni	0.247546	0.746516	0.835099
Ni2	Ni	0.477474	0.247315	0.340749
Ni3	Ni	0.753850	0.760496	0.835852
Ni4	Ni	1.009353	0.245763	0.315325
O1	O	0.060172	0.326936	0.459438
O2	O	0.372341	0.640715	0.875626
O3	O	0.359000	0.141054	0.380120
O4	O	0.134140	0.854203	0.867380
O5	O	0.423502	0.397442	0.492438
O6	O	0.221160	0.641462	0.980932
O7	O	0.082911	0.089832	0.467111
O8	O	0.288772	0.864937	0.971432
O9	O	0.578008	0.359606	0.399197
O10	O	0.880571	0.672540	0.895761
O11	O	0.922106	0.127093	0.379825
O12	O	0.678608	0.886596	0.899023
O13	O	0.902617	0.377620	0.542284
O14	O	0.728716	0.665624	0.996926
O15	O	0.498906	0.159377	0.509701
O16	O	0.835216	0.929213	0.995741
