data_NiPyC2_relax_sc211_ortho_functionalized_CH3_vdw-df2_relax_PM
_symmetry_space_group_name_H-M	'P1'
_cell_length_a	12.505617
_cell_length_b	12.523412
_cell_length_c	10.276810
_cell_angle_alpha	90.000000
_cell_angle_beta	91.268973
_cell_angle_gamma	90.000000
_symmetry_Int_Tables_number 1

loop_
_symmetry_equiv_pos_as_xyz
'x,y,z'

loop_
_atom_site_label
_atom_site_type_symbol
_atom_site_fract_x
_atom_site_fract_y
_atom_site_fract_z
C1	C	0.354171	0.978282	0.532447
C2	C	0.035277	0.036444	0.018202
C3	C	0.452406	0.010131	0.586161
C4	C	0.138302	0.996629	0.042505
C5	C	0.490724	0.963294	0.700401
C6	C	0.200484	0.035731	0.146176
C7	C	0.228707	0.565150	0.503524
C8	C	0.468110	0.489691	0.015480
C9	C	0.259608	0.637213	0.601625
C10	C	0.511656	0.400188	0.081750
C11	C	0.289314	0.902937	0.597404
C12	C	-0.001710	0.116778	0.100254
C13	C	0.427503	0.884531	0.757222
C14	C	0.162303	0.121470	0.221211
C15	C	0.101094	0.608914	0.717851
C16	C	0.365275	0.406999	0.224347
C17	C	0.071355	0.528396	0.626549
C18	C	0.316999	0.491581	0.156487
C19	C	0.133550	0.508922	0.518764
C20	C	0.370834	0.533522	0.051115
C21	C	0.516783	0.091321	0.516925
C22	C	0.183901	0.914871	0.959303
C23	C	0.097703	0.426856	0.423004
C24	C	0.323624	0.622784	0.978298
C25	C	0.793116	0.945850	0.496400
C26	C	0.544045	0.009266	0.025989
C27	C	0.891499	-0.009481	0.531091
C28	C	0.647381	0.974778	0.056610
C29	C	0.943812	0.959280	0.646091
C30	C	0.709627	0.028728	0.149793
C31	C	0.638596	0.523379	0.538523
C32	C	0.893607	0.460149	0.053325
C33	C	0.708192	0.594129	0.607385
C34	C	0.944906	0.375536	0.117481
C35	C	0.742744	0.871564	0.579228
C36	C	0.502896	0.102331	0.083388
C37	C	0.892165	0.885000	0.724606
C38	C	0.662114	0.114220	0.214132
C39	C	0.571506	0.620305	0.758567
C40	C	0.821882	0.379429	0.290364
C41	C	0.502816	0.546393	0.696641
C42	C	0.768218	0.466033	0.228664
C43	C	0.539625	0.494517	0.586985
C44	C	0.805636	0.506811	0.112679
C45	C	0.934603	0.075736	0.450370
C46	C	0.690579	0.884819	0.984636
C47	C	0.478233	0.405122	0.523684
C48	C	0.749340	0.597549	1.047533
C49	C	0.183970	0.874629	0.540765
C50	C	0.227516	0.173155	0.323232
C51	C	0.029548	0.635225	0.823830
C52	C	0.609202	0.348952	0.033206
C53	C	0.638993	0.826684	0.535999
C54	C	0.402999	0.150495	0.032352
C55	C	0.815544	0.616206	0.557376
C56	C	0.786939	0.334146	0.414441
H1	H	0.324438	1.009957	0.442164
H2	H	0.493952	-0.031523	0.957150
H3	H	0.020124	0.990348	0.676355
H4	H	0.278498	1.004118	0.167972
H5	H	0.279219	0.553158	0.421909
H6	H	-0.077889	0.487359	0.961821
H7	H	0.334265	0.679321	0.597148
H8	H	0.015195	0.338795	0.079384
H9	H	0.455123	0.841765	0.841348
H10	H	0.328915	0.374106	0.308943
H11	H	0.425868	0.530496	0.736014
H12	H	0.241867	0.522287	0.186682
H13	H	0.751693	0.968391	0.408270
H14	H	0.984252	0.005943	0.941537
H15	H	0.567487	0.982749	0.742432
H16	H	0.789794	1.005294	0.175002
H17	H	0.665679	0.490674	0.449935
H18	H	0.512859	0.520887	0.937422
H19	H	0.918665	0.148558	0.090353
H20	H	0.929338	0.858288	0.813786
H21	H	0.703419	0.155681	0.291840
H22	H	0.546595	0.663150	0.842563
H23	H	0.999090	0.484900	0.642024
H24	H	0.696854	0.498163	0.269222
H25	H	0.132693	0.837244	0.609516
H26	H	0.147560	0.944801	0.497424
H27	H	0.196122	0.819455	0.459966
H28	H	0.208531	0.256862	0.329910
H29	H	0.210174	0.138216	0.417396
H30	H	0.310796	0.160641	0.306203
H31	H	0.034590	0.717970	0.851624
H32	H	0.055319	0.590475	0.910022
H33	H	0.949084	0.611509	0.799432
H34	H	0.659415	0.318324	0.111323
H35	H	0.652111	0.403552	-0.027343
H36	H	0.586651	0.280964	0.972534
H37	H	0.591628	0.799473	0.615200
H38	H	0.596519	0.884238	0.476510
H39	H	0.653206	0.758931	0.472083
H40	H	0.359622	0.191703	0.106452
H41	H	0.354972	0.091088	-0.016904
H42	H	0.423416	0.210177	0.959694
H43	H	0.863112	0.665115	0.621610
H44	H	0.855685	0.541355	0.538818
H45	H	0.807387	0.654147	0.462335
H46	H	0.826487	0.260953	0.439953
H47	H	0.801939	0.390756	0.492531
H48	H	0.701526	0.321760	0.411605
N1	N	0.329864	0.858557	0.709379
N2	N	0.060853	0.157176	0.197017
N3	N	0.197601	0.658803	0.704096
N4	N	0.458617	0.362928	0.187582
N5	N	0.794264	0.844848	0.694023
N6	N	0.562196	0.147710	0.182118
N7	N	0.671161	0.639949	0.717872
N8	N	0.909551	0.337926	0.231701
Ni1	Ni	0.252852	0.765915	0.836002
Ni2	Ni	0.503708	0.247232	0.308143
Ni3	Ni	0.746932	0.745778	0.835570
Ni4	Ni	0.997195	0.240637	0.340056
O1	O	0.127306	0.428351	0.307507
O2	O	0.377308	0.672968	0.891188
O3	O	0.464721	0.134168	0.418326
O4	O	0.132555	0.875434	0.860069
O5	O	0.383171	0.384989	0.547307
O6	O	0.227647	0.654470	0.993366
O7	O	0.020279	0.127364	0.482717
O8	O	0.278499	0.877532	0.980933
O9	O	0.534680	0.348710	0.442938
O10	O	0.799016	0.634951	0.946607
O11	O	0.884553	0.107616	0.347121
O12	O	0.627880	0.828809	0.908346
O13	O	1.034449	0.352711	0.465950
O14	O	0.662231	0.633597	1.084640
O15	O	0.610528	0.115100	0.547611
O16	O	0.789431	0.859642	0.986196
