data_NiPyC2_relax_sc211_meta_functionalized_O-OH_pbesol_relax_PM
_symmetry_space_group_name_H-M	'P1'
_cell_length_a	12.505617
_cell_length_b	12.523412
_cell_length_c	10.276810
_cell_angle_alpha	90.000000
_cell_angle_beta	91.268973
_cell_angle_gamma	90.000000
_symmetry_Int_Tables_number 1

loop_
_symmetry_equiv_pos_as_xyz
'x,y,z'

loop_
_atom_site_label
_atom_site_type_symbol
_atom_site_fract_x
_atom_site_fract_y
_atom_site_fract_z
C1	C	0.278757	0.961002	0.518190
C2	C	0.031819	0.043886	0.004616
C3	C	0.380516	0.008250	0.538905
C4	C	0.132494	0.994416	0.025813
C5	C	0.444514	0.961485	0.635938
C6	C	0.196944	0.040258	0.123189
C7	C	0.228033	0.509714	0.543917
C8	C	0.448471	0.455817	0.020057
C9	C	0.256888	0.596790	0.622821
C10	C	0.487051	0.375683	0.105674
C11	C	0.241206	0.879233	0.600137
C12	C	-0.004028	0.126636	0.086378
C13	C	0.405359	0.877444	0.711561
C14	C	0.160057	0.126039	0.197795
C15	C	0.087913	0.611311	0.712475
C16	C	0.342491	0.402470	0.240478
C17	C	0.042340	0.525480	0.623386
C18	C	0.302084	0.484487	0.160603
C19	C	0.125177	0.470511	0.543186
C20	C	0.355864	0.515958	0.049413
C21	C	0.417858	0.101742	0.466060
C22	C	0.168949	0.900240	0.953462
C23	C	0.084028	0.384807	0.460761
C24	C	0.315193	0.605352	0.969255
C25	C	0.780639	0.971682	0.511912
C26	C	0.529033	0.041151	0.030895
C27	C	0.886509	0.011381	0.520021
C28	C	0.636197	1.005110	0.036794
C29	C	0.953548	0.960407	0.610600
C30	C	0.703182	0.058089	0.125615
C31	C	0.720837	0.519225	0.552812
C32	C	0.975416	0.502664	0.040743
C33	C	0.751398	0.612966	0.631264
C34	C	1.007553	0.414287	0.115830
C35	C	0.743552	0.894676	0.600616
C36	C	0.490794	0.117294	0.119653
C37	C	0.914523	0.880200	0.692426
C38	C	0.662542	0.137130	0.208052
C39	C	0.582189	0.627926	0.718574
C40	C	0.842416	0.404215	0.217405
C41	C	0.544113	0.541680	0.643248
C42	C	0.806621	0.494329	0.145035
C43	C	0.610417	0.484004	0.562306
C44	C	0.872576	0.544316	0.052413
C45	C	0.925496	0.101745	0.442593
C46	C	0.675237	0.916677	0.956971
C47	C	0.570447	0.391044	0.488799
C48	C	0.831742	0.632967	0.971776
H1	H	0.036329	0.984970	0.622961
H2	H	0.275374	1.007546	0.146233
H3	H	0.289446	0.473586	0.485074
H4	H	0.032130	0.538567	0.975202
H5	H	0.336583	0.630839	0.622805
H6	H	0.087363	0.380790	0.109575
H7	H	0.160758	0.847660	0.586588
H8	H	0.406954	0.140074	0.118157
H9	H	0.453661	0.842557	0.789300
H10	H	0.208862	0.160909	0.275136
H11	H	0.033142	0.645999	0.782463
H12	H	0.299899	0.375355	0.324987
H13	H	0.461404	0.517123	0.653729
H14	H	0.228484	0.524172	0.187081
H15	H	0.523912	0.992321	0.658197
H16	H	0.787000	1.036472	0.135783
H17	H	0.833511	0.640787	0.624302
H18	H	0.559326	0.332151	0.084418
H19	H	0.660227	0.869928	0.597512
H20	H	0.915893	0.159211	0.072938
H21	H	0.965687	0.842167	0.765045
H22	H	0.713380	0.176955	0.279433
H23	H	0.532058	0.668127	0.788001
H24	H	0.792210	0.367583	0.290037
H25	H	0.076872	0.015699	0.402423
H26	H	0.827033	-0.004905	0.907262
H27	H	0.898331	0.415079	0.823625
H28	H	0.597503	0.432190	0.796240
H29	H	0.572175	0.030765	0.431782
H30	H	0.322543	-0.022559	0.928392
H31	H	0.910092	0.517186	0.515328
H32	H	0.585035	0.528398	0.245590
N1	N	0.303904	0.840880	0.696563
N2	N	0.059215	0.164354	0.182320
N3	N	0.187386	0.643060	0.707544
N4	N	0.435499	0.352084	0.215096
N5	N	0.809828	0.852696	0.690669
N6	N	0.557214	0.161423	0.208376
N7	N	0.685408	0.660801	0.711331
N8	N	0.941710	0.366455	0.201538
Ni1	Ni	0.243890	0.749245	0.836000
Ni2	Ni	0.497706	0.252735	0.348421
Ni3	Ni	0.750427	0.767837	0.835512
Ni4	Ni	1.000410	0.253800	0.323089
O1	O	0.136762	0.336923	0.372161
O2	O	0.370292	0.653662	0.882888
O3	O	0.362888	0.160103	0.388982
O4	O	0.112776	0.841697	0.877251
O5	O	0.470533	0.365420	0.486848
O6	O	0.219974	0.641847	0.981611
O7	O	0.027232	0.123414	0.443560
O8	O	0.269300	0.871967	0.962761
O9	O	0.628827	0.330512	0.418752
O10	O	0.886022	0.680959	0.884948
O11	O	0.868976	0.163654	0.370775
O12	O	0.618365	0.856493	0.883509
O13	O	0.986340	0.352608	0.469808
O14	O	0.734758	0.667031	0.980162
O15	O	0.518558	0.129275	0.476528
O16	O	0.777257	0.894617	0.957002
O17	O	0.220446	0.001661	0.420625
O18	O	0.121815	0.947316	0.399868
O19	O	0.972215	1.006110	0.906552
O20	O	0.873529	0.061522	0.890260
O21	O	1.005805	0.441241	0.710437
O22	O	0.904574	0.471088	0.757403
O23	O	0.494895	0.477370	0.907361
O24	O	0.583380	0.404984	0.884379
O25	O	0.717089	0.013390	0.419960
O26	O	0.615762	0.962607	0.412086
O27	O	0.466245	0.995382	0.940944
O28	O	0.365895	0.047013	0.926357
O29	O	0.789247	0.475255	0.484960
O30	O	0.965569	0.572007	0.545341
O31	O	0.711885	0.541132	0.160980
O32	O	0.645688	0.478765	0.245641
