data_NiPyC2_relax_sc211_ortho_functionalized_F_pbesol_relax_PM
_symmetry_space_group_name_H-M	'P1'
_cell_length_a	12.505617
_cell_length_b	12.523412
_cell_length_c	10.276810
_cell_angle_alpha	90.000000
_cell_angle_beta	91.268973
_cell_angle_gamma	90.000000
_symmetry_Int_Tables_number 1

loop_
_symmetry_equiv_pos_as_xyz
'x,y,z'

loop_
_atom_site_label
_atom_site_type_symbol
_atom_site_fract_x
_atom_site_fract_y
_atom_site_fract_z
C1	C	0.315868	0.967498	0.524096
C2	C	0.053141	0.051446	0.003038
C3	C	0.416465	0.008160	0.557153
C4	C	0.145075	0.993443	0.039098
C5	C	0.472848	0.964427	0.663509
C6	C	0.195443	0.015428	0.158042
C7	C	0.232270	0.494138	0.573042
C8	C	0.434425	0.475064	0.036682
C9	C	0.265634	0.579464	0.652884
C10	C	0.476547	0.390005	0.110739
C11	C	0.274081	0.885898	0.601354
C12	C	0.013625	0.128352	0.089077
C13	C	0.423775	0.883400	0.736108
C14	C	0.151465	0.096035	0.235142
C15	C	0.092410	0.638525	0.674534
C16	C	0.324058	0.375727	0.231562
C17	C	0.050509	0.552589	0.601773
C18	C	0.274193	0.458852	0.160682
C19	C	0.122284	0.479809	0.550646
C20	C	0.331406	0.509920	0.063131
C21	C	0.458108	0.097811	0.480044
C22	C	0.188597	0.908101	0.957536
C23	C	0.079204	0.390348	0.473230
C24	C	0.286237	0.600653	0.987508
C25	C	0.784434	0.971938	0.519400
C26	C	0.519951	-0.010343	0.070016
C27	C	0.884576	0.017276	0.548857
C28	C	0.629981	0.978652	0.050775
C29	C	0.942094	0.981612	0.657904
C30	C	0.700040	0.053513	0.104721
C31	C	0.692457	0.545220	0.508957
C32	C	0.963826	0.468869	0.018099
C33	C	0.731368	0.625531	0.592500
C34	C	1.001895	0.387530	0.101596
C35	C	0.745488	0.891029	0.600773
C36	C	0.484956	0.073126	0.150084
C37	C	0.894564	0.903008	0.735766
C38	C	0.656282	0.137969	0.176600
C39	C	0.589899	0.602138	0.729277
C40	C	0.855653	0.404497	0.232113
C41	C	0.546764	0.518247	0.654657
C42	C	0.808844	0.483561	0.151931
C43	C	0.599557	0.489901	0.542306
C44	C	0.865281	0.516832	0.044142
C45	C	0.929667	0.102854	0.468005
C46	C	0.673774	0.890950	0.972898
C47	C	0.557811	0.401124	0.463341
C48	C	0.820021	0.602869	0.961983
F1	F	0.179897	0.847369	0.571808
F2	F	0.197795	0.121389	0.344992
F3	F	0.029195	0.712436	0.714866
F4	F	0.571823	0.354635	0.085912
F5	F	0.941645	0.872537	0.842328
F6	F	0.717701	0.213987	0.218110
F7	F	0.540754	0.633682	0.832275
F8	F	0.809159	0.376658	0.337594
H1	H	0.267404	0.997822	0.443920
H2	H	0.461495	-0.065453	1.028495
H3	H	0.020921	1.011225	0.685909
H4	H	0.265642	0.972220	0.193410
H5	H	0.291675	0.440342	0.534013
H6	H	0.011312	0.493355	0.936261
H7	H	0.349560	0.592894	0.677175
H8	H	0.077452	0.347435	0.084318
H9	H	0.400929	0.082656	0.172346
H10	H	0.464652	0.848950	0.820542
H11	H	0.283046	0.336310	0.310336
H12	H	0.475390	0.477552	0.687144
H13	H	0.193862	0.482791	0.185415
H14	H	0.736424	0.998232	0.436290
H15	H	1.011002	0.037171	0.911667
H16	H	0.551598	0.992367	0.693569
H17	H	0.786119	1.050491	0.092658
H18	H	0.735615	0.525686	0.422127
H19	H	0.483859	0.511250	0.963428
H20	H	0.804988	0.668448	0.573354
H21	H	0.668467	0.853267	0.581014
H22	H	0.941272	0.173517	0.066371
H23	H	0.964465	0.546433	0.586477
H24	H	0.731553	0.516134	0.177254
N1	N	0.325805	0.845382	0.706934
N2	N	0.061971	0.151084	0.204316
N3	N	0.197314	0.649366	0.705578
N4	N	0.423921	0.342452	0.208424
N5	N	0.799250	0.856446	0.707709
N6	N	0.551620	0.145177	0.205273
N7	N	0.681096	0.654002	0.701844
N8	N	0.949114	0.355089	0.207445
Ni1	Ni	0.249245	0.755575	0.836520
Ni2	Ni	0.499928	0.249267	0.339196
Ni3	Ni	0.744163	0.750691	0.836202
Ni4	Ni	1.004335	0.249068	0.340147
O1	O	0.133327	0.339097	0.388949
O2	O	0.348359	0.652983	0.910446
O3	O	0.395760	0.145747	0.396224
O4	O	0.144566	0.876562	0.850453
O5	O	0.470158	0.352343	0.487682
O6	O	0.190384	0.631600	0.990124
O7	O	0.023492	0.141183	0.489399
O8	O	0.274274	0.856398	0.988931
O9	O	0.606318	0.364321	0.364092
O10	O	0.869168	0.646587	0.867929
O11	O	0.879589	0.146000	0.371382
O12	O	0.618428	0.840603	0.885689
O13	O	0.982427	0.358975	0.483190
O14	O	0.726196	0.641102	0.980197
O15	O	0.552609	0.134652	0.487064
O16	O	0.770820	0.860268	0.984211
