data_NiPyC2_relax_sc211_meta_functionalized_Cl_pbesol_relax_PM
_symmetry_space_group_name_H-M	'P1'
_cell_length_a	12.505617
_cell_length_b	12.523412
_cell_length_c	10.276810
_cell_angle_alpha	90.000000
_cell_angle_beta	91.268973
_cell_angle_gamma	90.000000
_symmetry_Int_Tables_number 1

loop_
_symmetry_equiv_pos_as_xyz
'x,y,z'

loop_
_atom_site_label
_atom_site_type_symbol
_atom_site_fract_x
_atom_site_fract_y
_atom_site_fract_z
C1	C	0.279479	0.967157	0.541516
C2	C	0.043314	0.031709	0.009701
C3	C	0.380264	0.017870	0.557411
C4	C	0.143264	0.985532	0.035092
C5	C	0.447811	0.975195	0.654714
C6	C	0.205555	0.030296	0.137623
C7	C	0.211047	0.524047	0.527642
C8	C	0.439465	0.442177	0.009750
C9	C	0.244851	0.610561	0.603949
C10	C	0.476196	0.362152	0.096483
C11	C	0.252099	0.879498	0.620220
C12	C	0.006926	0.115642	0.087774
C13	C	0.414839	0.889367	0.732041
C14	C	0.166701	0.119827	0.207429
C15	C	0.098719	0.593459	0.739200
C16	C	0.334426	0.393536	0.234417
C17	C	0.062694	0.502323	0.669451
C18	C	0.295507	0.475736	0.154409
C19	C	0.118080	0.468482	0.557805
C20	C	0.349615	0.504306	0.042261
C21	C	0.415813	0.109164	0.478310
C22	C	0.183374	0.894166	0.960321
C23	C	0.078490	0.381413	0.473846
C24	C	0.313270	0.596204	0.964896
C25	C	0.776956	0.978797	0.545007
C26	C	0.538545	0.032014	0.022867
C27	C	0.882781	0.018996	0.549743
C28	C	0.640704	0.989665	0.043970
C29	C	0.952618	0.970446	0.640228
C30	C	0.703483	0.035781	0.145208
C31	C	0.715210	0.524712	0.543009
C32	C	0.974826	0.493515	0.052396
C33	C	0.751985	0.607011	0.627072
C34	C	1.010671	0.408140	0.129969
C35	C	0.747706	0.893102	0.625591
C36	C	0.500587	0.112937	0.104191
C37	C	0.917790	0.887636	0.720937
C38	C	0.662799	0.123518	0.216990
C39	C	0.579384	0.639334	0.695829
C40	C	0.838964	0.374666	0.202480
C41	C	0.538079	0.558667	0.613968
C42	C	0.798844	0.464423	0.132552
C43	C	0.605661	0.496289	0.538707
C44	C	0.867122	0.523363	0.051340
C45	C	0.921527	0.105708	0.466156
C46	C	0.682127	0.901159	0.965552
C47	C	0.562948	0.403997	0.464285
C48	C	0.825538	0.611249	0.969549
Cl1	Cl	0.181395	0.004522	0.440210
Cl2	Cl	0.320457	0.973588	0.188548
Cl3	Cl	0.958821	0.435674	0.729912
Cl4	Cl	0.506302	0.455064	0.872025
Cl5	Cl	0.675360	0.028206	0.457582
Cl6	Cl	0.822022	0.984223	0.190744
Cl7	Cl	0.808922	0.463954	0.458405
Cl8	Cl	0.672101	0.500208	0.156778
H1	H	0.485845	0.000376	0.946722
H2	H	0.034695	0.997999	0.650605
H3	H	0.258843	0.499940	0.445799
H4	H	0.033070	0.537561	0.996853
H5	H	0.317538	0.654565	0.583919
H6	H	0.094394	0.385247	0.135419
H7	H	0.174357	0.841551	0.607591
H8	H	0.421141	0.146448	0.090381
H9	H	0.465940	0.858078	0.809940
H10	H	0.217119	0.158681	0.280667
H11	H	0.054143	0.623684	0.821045
H12	H	0.293664	0.369282	0.321698
H13	H	0.452884	0.542025	0.614840
H14	H	0.223893	0.518698	0.181622
H15	H	0.990835	0.000852	0.932885
H16	H	0.526556	1.009350	0.673010
H17	H	0.836639	0.626493	0.633461
H18	H	0.547541	0.316785	0.075090
H19	H	0.666635	0.861875	0.620978
H20	H	0.928884	0.151781	0.071178
H21	H	0.970534	0.851235	0.793717
H22	H	0.714355	0.164870	0.286800
H23	H	0.528327	0.684123	0.759978
H24	H	0.785752	0.326545	0.260603
N1	N	0.317945	0.842870	0.713839
N2	N	0.066313	0.155545	0.188349
N3	N	0.188745	0.644440	0.707178
N4	N	0.425559	0.340740	0.206836
N5	N	0.816316	0.850547	0.712112
N6	N	0.560576	0.154929	0.203103
N7	N	0.685419	0.660681	0.703344
N8	N	0.943362	0.349950	0.203445
Ni1	Ni	0.251744	0.744475	0.836590
Ni2	Ni	0.492639	0.249635	0.340805
Ni3	Ni	0.751009	0.754969	0.836797
Ni4	Ni	1.001464	0.244069	0.331156
O1	O	0.132202	0.340134	0.381634
O2	O	0.371208	0.642484	0.879666
O3	O	0.361479	0.153385	0.385876
O4	O	0.127810	0.845925	0.871474
O5	O	0.465121	0.374990	0.472020
O6	O	0.220165	0.637289	0.978893
O7	O	0.020789	0.133921	0.470344
O8	O	0.278289	0.856569	0.977316
O9	O	0.619189	0.345565	0.388342
O10	O	0.881809	0.660827	0.885672
O11	O	0.865224	0.158846	0.382916
O12	O	0.626084	0.853148	0.876734
O13	O	0.983893	0.342696	0.484116
O14	O	0.727986	0.643607	0.974410
O15	O	0.509228	0.151441	0.495648
O16	O	0.778075	0.865699	0.978909
