data_NiPyC2_relax_sc211_meta_functionalized_SH_pbesol_relax_PM
_symmetry_space_group_name_H-M	'P1'
_cell_length_a	12.505617
_cell_length_b	12.523412
_cell_length_c	10.276810
_cell_angle_alpha	90.000000
_cell_angle_beta	91.268973
_cell_angle_gamma	90.000000
_symmetry_Int_Tables_number 1

loop_
_symmetry_equiv_pos_as_xyz
'x,y,z'

loop_
_atom_site_label
_atom_site_type_symbol
_atom_site_fract_x
_atom_site_fract_y
_atom_site_fract_z
C1	C	0.320198	0.961574	0.518558
C2	C	0.062774	0.061438	0.018428
C3	C	0.415849	0.011344	0.555975
C4	C	0.155203	0.999991	0.048744
C5	C	0.469349	0.978538	0.673804
C6	C	0.211071	0.028313	0.163393
C7	C	0.205325	0.537276	0.534554
C8	C	0.451967	0.485289	0.045413
C9	C	0.249150	0.620491	0.611895
C10	C	0.489747	0.397025	0.114593
C11	C	0.276899	0.883017	0.596977
C12	C	0.022843	0.132046	0.113164
C13	C	0.420523	0.895637	0.746104
C14	C	0.170866	0.105548	0.248018
C15	C	0.082408	0.647089	0.713857
C16	C	0.329262	0.381590	0.226219
C17	C	0.044905	0.543844	0.658003
C18	C	0.284368	0.471710	0.160493
C19	C	0.103944	0.494678	0.560586
C20	C	0.348536	0.522815	0.065116
C21	C	0.456855	0.095686	0.473553
C22	C	0.191597	0.908329	0.971716
C23	C	0.066453	0.400338	0.489970
C24	C	0.309486	0.611844	0.986318
C25	C	0.791230	0.962871	0.532701
C26	C	0.545126	0.012683	0.045932
C27	C	0.894686	0.002474	0.559495
C28	C	0.649757	0.976681	0.066851
C29	C	0.952162	0.954945	0.662563
C30	C	0.716477	0.030345	0.160978
C31	C	0.677303	0.535487	0.523013
C32	C	0.940581	0.445501	0.023376
C33	C	0.717067	0.617923	0.600074
C34	C	0.979259	0.371260	0.116492
C35	C	0.746689	0.881155	0.609866
C36	C	0.508192	0.100918	0.113864
C37	C	0.906251	0.866489	0.739105
C38	C	0.671990	0.119929	0.225922
C39	C	0.572400	0.604815	0.741079
C40	C	0.829332	0.391504	0.242498
C41	C	0.527125	0.518169	0.669834
C42	C	0.787665	0.468705	0.156763
C43	C	0.583093	0.484134	0.557348
C44	C	0.844154	0.500662	0.047059
C45	C	0.935453	0.093780	0.485994
C46	C	0.687563	0.886834	0.990601
C47	C	0.545987	0.396981	0.475815
C48	C	0.804653	0.591343	0.968806
H1	H	0.279211	0.984004	0.428296
H2	H	0.490726	-0.028882	0.979711
H3	H	0.286072	0.988773	0.188624
H4	H	0.253799	0.500746	0.460247
H5	H	0.331483	0.646119	0.599325
H6	H	0.054500	0.329998	0.100873
H7	H	0.202303	0.842566	0.571886
H8	H	0.427001	0.130823	0.101128
H9	H	0.458766	0.864925	0.834321
H10	H	0.214667	0.128240	0.336199
H11	H	0.040207	0.710438	0.655635
H12	H	0.284027	0.339946	0.299854
H13	H	0.742712	0.997815	0.454596
H14	H	0.719430	0.510539	0.436708
H15	H	0.504269	0.525479	0.978262
H16	H	0.790858	0.659826	0.579107
H17	H	0.569975	0.365567	0.102697
H18	H	0.665819	0.852837	0.588998
H19	H	0.948215	0.174756	0.094180
H20	H	0.957031	0.794383	0.732840
H21	H	0.718915	0.162519	0.299514
H22	H	0.533503	0.635911	0.826656
H23	H	0.785865	0.366521	0.327731
H24	H	0.711574	0.506185	0.177849
H25	H	0.586971	0.110174	0.578503
H26	H	0.914691	0.883730	0.844394
H27	H	0.936053	0.386380	0.591241
H28	H	0.169684	0.609584	0.067038
H29	H	0.070306	0.099613	0.586007
H30	H	0.828231	0.890179	0.075808
H31	H	0.416244	0.378835	0.574672
H32	H	0.056291	0.658824	0.814031
N1	N	0.326507	0.852618	0.709529
N2	N	0.075203	0.153870	0.225119
N3	N	0.195067	0.668834	0.703812
N4	N	0.428464	0.346877	0.202869
N5	N	0.798011	0.836308	0.709513
N6	N	0.571283	0.152489	0.202338
N7	N	0.664969	0.649893	0.707366
N8	N	0.925801	0.345235	0.223666
Ni1	Ni	0.255556	0.763274	0.836099
Ni2	Ni	0.500984	0.248772	0.323041
Ni3	Ni	0.736973	0.737371	0.836103
Ni4	Ni	1.001187	0.249216	0.347620
O1	O	0.117425	0.352350	0.403603
O2	O	0.365043	0.659911	0.903753
O3	O	0.403159	0.135305	0.379865
O4	O	0.129348	0.856448	0.890922
O5	O	0.450797	0.351865	0.490453
O6	O	0.209607	0.647235	0.993224
O7	O	0.036080	0.128523	0.502980
O8	O	0.286823	0.871914	0.981059
O9	O	0.600595	0.358849	0.384808
O10	O	0.863026	0.643092	0.887116
O11	O	0.883362	0.145739	0.401222
O12	O	0.630773	0.839672	0.905234
O13	O	0.968861	0.359337	0.508710
O14	O	0.709417	0.627310	0.978207
O15	O	0.554027	0.136745	0.491717
O16	O	0.786695	0.849758	1.002915
S1	S	0.582232	0.034285	0.735562
S2	S	0.987365	1.076742	0.879454
S3	S	0.933492	0.490021	0.729950
S4	S	0.162573	0.514570	0.204932
S5	S	0.071718	0.003753	0.727772
S6	S	0.841417	0.991252	0.204247
S7	S	0.415952	0.460015	0.727263
S8	S	0.027343	0.452871	0.897607
