data_NiPyC2_relax_sc211_meta_functionalized_Cl_vdw-df2_relax_PM
_symmetry_space_group_name_H-M	'P1'
_cell_length_a	12.505617
_cell_length_b	12.523412
_cell_length_c	10.276810
_cell_angle_alpha	90.000000
_cell_angle_beta	91.268973
_cell_angle_gamma	90.000000
_symmetry_Int_Tables_number 1

loop_
_symmetry_equiv_pos_as_xyz
'x,y,z'

loop_
_atom_site_label
_atom_site_type_symbol
_atom_site_fract_x
_atom_site_fract_y
_atom_site_fract_z
C1	C	0.279048	0.963253	0.538509
C2	C	0.046736	0.042315	0.004574
C3	C	0.378858	0.015245	0.558659
C4	C	0.147004	0.996764	0.031470
C5	C	0.447048	0.972811	0.655922
C6	C	0.209607	0.041728	0.133572
C7	C	0.211895	0.521498	0.534365
C8	C	0.436753	0.439417	0.006042
C9	C	0.242185	0.610959	0.606503
C10	C	0.474585	0.359727	0.091705
C11	C	0.252972	0.874141	0.614233
C12	C	0.009071	0.124725	0.083673
C13	C	0.414666	0.885624	0.730595
C14	C	0.169268	0.129928	0.204259
C15	C	0.094234	0.593934	0.741573
C16	C	0.331394	0.385391	0.229763
C17	C	0.061689	0.500025	0.676443
C18	C	0.291620	0.468363	0.151762
C19	C	0.119396	0.465775	0.566696
C20	C	0.345846	0.499435	0.040238
C21	C	0.413973	0.108332	0.483214
C22	C	0.184626	0.903601	0.958736
C23	C	0.080550	0.379829	0.482323
C24	C	0.308987	0.593711	0.967613
C25	C	0.779606	0.972797	0.545668
C26	C	0.548900	0.037136	0.014537
C27	C	0.884564	0.014804	0.556740
C28	C	0.650607	0.994662	0.039905
C29	C	0.954780	0.964587	0.645980
C30	C	0.712501	0.039464	0.142691
C31	C	0.713696	0.527611	0.541189
C32	C	0.972301	0.493376	0.058488
C33	C	0.747966	0.608708	0.627062
C34	C	1.006770	0.406775	0.133851
C35	C	0.751004	0.883838	0.619743
C36	C	0.509430	0.116854	0.095174
C37	C	0.919806	0.878553	0.721017
C38	C	0.670360	0.126562	0.213399
C39	C	0.572255	0.643970	0.686992
C40	C	0.832765	0.371660	0.201962
C41	C	0.533281	0.564388	0.602631
C42	C	0.793960	0.462703	0.134464
C43	C	0.603916	0.500722	0.532995
C44	C	0.864125	0.522100	0.056253
C45	C	0.922124	0.104896	0.478377
C46	C	0.688982	0.904666	0.963203
C47	C	0.562814	0.406178	0.462957
C48	C	0.824771	0.609447	0.973320
Cl1	Cl	0.179150	0.000294	0.435714
Cl2	Cl	0.326065	0.983113	0.187306
Cl3	Cl	0.958556	0.429755	0.741246
Cl4	Cl	0.506578	0.453836	0.867357
Cl5	Cl	0.675949	0.024072	0.459306
Cl6	Cl	0.830362	0.983704	0.195822
Cl7	Cl	0.811655	0.466284	0.460182
Cl8	Cl	0.666747	0.502722	0.164458
H1	H	0.498798	0.006200	0.937190
H2	H	0.035113	0.993081	0.660220
H3	H	0.259929	0.495703	0.454924
H4	H	0.029925	0.538364	1.005584
H5	H	0.313031	0.655706	0.585913
H6	H	0.089087	0.382837	0.139609
H7	H	0.177193	0.834914	0.600226
H8	H	0.431090	0.149657	0.079735
H9	H	0.462876	0.854581	0.809113
H10	H	0.216585	0.168468	0.278356
H11	H	0.050138	0.624960	0.821434
H12	H	0.292395	0.359909	0.315833
H13	H	0.449295	0.547438	0.598538
H14	H	0.220808	0.510139	0.179915
H15	H	0.996040	0.011570	0.927571
H16	H	0.523780	1.008299	0.676040
H17	H	0.831421	0.627993	0.638436
H18	H	0.546857	0.318158	0.070715
H19	H	0.671623	0.851590	0.611580
H20	H	0.931232	0.159199	0.067785
H21	H	0.969375	0.841191	0.793832
H22	H	0.717633	0.166532	0.286161
H23	H	0.520603	0.688587	0.748701
H24	H	0.780442	0.323314	0.258533
N1	N	0.318713	0.838095	0.708411
N2	N	0.067610	0.163111	0.186232
N3	N	0.183143	0.646282	0.706972
N4	N	0.423925	0.335142	0.201307
N5	N	0.819020	0.840608	0.706572
N6	N	0.567886	0.157104	0.196886
N7	N	0.678708	0.662069	0.700424
N8	N	0.937573	0.348016	0.204650
Ni1	Ni	0.246524	0.747199	0.837054
Ni2	Ni	0.496093	0.246487	0.340296
Ni3	Ni	0.748656	0.751945	0.836651
Ni4	Ni	0.997917	0.245921	0.338629
O1	O	0.134385	0.340094	0.389001
O2	O	0.367271	0.640800	0.882867
O3	O	0.358497	0.154150	0.392861
O4	O	0.124869	0.853918	0.874523
O5	O	0.464204	0.379055	0.469267
O6	O	0.216277	0.634874	0.986348
O7	O	0.021117	0.134021	0.484061
O8	O	0.279625	0.865171	0.973728
O9	O	0.622383	0.344446	0.394226
O10	O	0.883995	0.658472	0.891770
O11	O	0.863649	0.158712	0.397067
O12	O	0.628543	0.858944	0.875922
O13	O	0.984774	0.343058	0.493034
O14	O	0.726084	0.640379	0.974690
O15	O	0.508438	0.148777	0.501401
O16	O	0.783751	0.865790	0.977169
