data_NiPyC2_relax_sc211_meta_functionalized_CH-O_vdw-df2_relax_PM
_symmetry_space_group_name_H-M	'P1'
_cell_length_a	12.505617
_cell_length_b	12.523412
_cell_length_c	10.276810
_cell_angle_alpha	90.000000
_cell_angle_beta	91.268973
_cell_angle_gamma	90.000000
_symmetry_Int_Tables_number 1

loop_
_symmetry_equiv_pos_as_xyz
'x,y,z'

loop_
_atom_site_label
_atom_site_type_symbol
_atom_site_fract_x
_atom_site_fract_y
_atom_site_fract_z
C1	C	0.291166	0.988453	0.540821
C2	C	0.046250	0.056285	0.025546
C3	C	0.392014	0.033753	0.563671
C4	C	0.141650	1.000277	0.055101
C5	C	0.455087	0.996686	0.669890
C6	C	0.199382	0.028594	0.168449
C7	C	0.222039	0.559437	0.515387
C8	C	0.463316	0.475746	0.036757
C9	C	0.254528	0.643412	0.599155
C10	C	0.493116	0.380098	0.099180
C11	C	0.256630	0.906682	0.621199
C12	C	0.010898	0.134244	0.112651
C13	C	0.417812	0.908948	0.742214
C14	C	0.159347	0.107777	0.249971
C15	C	0.091822	0.640794	0.703701
C16	C	0.320425	0.354997	0.173927
C17	C	0.053780	0.558153	0.623470
C18	C	0.285015	0.448875	0.111932
C19	C	0.121719	0.510227	0.534118
C20	C	0.357253	0.513126	0.045212
C21	C	0.432054	0.112263	0.471732
C22	C	0.182756	0.912183	0.975669
C23	C	0.084916	0.409775	0.471039
C24	C	0.318299	0.611288	0.979681
C25	C	0.771980	0.960589	0.532896
C26	C	0.521621	-0.015948	0.056496
C27	C	0.876354	0.002114	0.548787
C28	C	0.630261	0.958165	0.055615
C29	C	0.947664	0.942334	0.626256
C30	C	0.702954	0.021411	0.129012
C31	C	0.706043	0.514386	0.522951
C32	C	0.969448	0.452797	0.033998
C33	C	0.741452	0.593958	0.608743
C34	C	1.005407	0.377732	0.126225
C35	C	0.741141	0.870476	0.605644
C36	C	0.489227	0.074980	0.123321
C37	C	0.910300	0.856740	0.700857
C38	C	0.665416	0.115844	0.187971
C39	C	0.572446	0.609023	0.699128
C40	C	0.846379	0.390987	0.240974
C41	C	0.534983	0.519676	0.627209
C42	C	0.808439	0.471329	0.157656
C43	C	0.601209	0.476213	0.530858
C44	C	0.871062	0.505017	0.053741
C45	C	0.916547	0.101802	0.488208
C46	C	0.666943	0.870346	0.973772
C47	C	0.562986	0.393107	0.440691
C48	C	0.830160	0.593130	0.972104
C49	C	0.555524	0.050479	0.711242
C50	C	0.978970	1.039047	0.908917
C51	C	0.297838	0.527262	0.415531
C52	C	0.550177	0.528444	0.967265
C53	C	0.689918	0.004424	0.444406
C54	C	0.811628	0.982771	0.159415
C55	C	0.435737	0.467095	0.667571
C56	C	0.033086	0.467242	0.917044
H1	H	0.239446	1.015017	0.463131
H2	H	0.462279	-0.064563	1.008879
H3	H	0.030004	0.965730	0.635805
H4	H	0.272657	0.988999	0.195138
H5	H	0.332585	0.678363	0.590373
H6	H	0.081792	0.339898	0.116819
H7	H	0.179263	0.870801	0.608261
H8	H	0.406809	0.098240	0.126660
H9	H	0.465480	0.873936	0.819047
H10	H	0.200706	0.133094	0.336646
H11	H	0.044592	0.673651	0.779531
H12	H	0.268284	0.306428	0.230688
H13	H	0.203255	0.472729	0.120494
H14	H	0.761022	0.481743	0.455058
H15	H	0.822395	0.622263	0.609182
H16	H	0.574109	0.351739	0.095142
H17	H	0.660941	0.840089	0.596334
H18	H	0.937552	0.176096	0.092694
H19	H	0.960687	0.817880	0.771914
H20	H	0.719150	0.169187	0.239489
H21	H	0.520900	0.650446	0.764323
H22	H	0.800604	0.360391	0.319425
H23	H	0.974722	0.527522	0.637137
H24	H	0.731507	0.505949	0.174149
H25	H	0.563466	0.134035	0.678837
H26	H	1.014740	0.985990	0.837332
H27	H	0.278516	0.451121	0.367392
H28	H	0.548586	0.615978	0.963068
H29	H	0.702470	0.088001	0.416575
H30	H	0.837149	0.914470	0.099526
H31	H	0.415452	0.393725	0.612532
H32	H	-0.003179	0.524601	0.848712
N1	N	0.320147	0.867287	0.718549
N2	N	0.065486	0.156976	0.222550
N3	N	0.192865	0.678006	0.695538
N4	N	0.424366	0.324934	0.171424
N5	N	0.807319	0.824336	0.692697
N6	N	0.560432	0.138585	0.188444
N7	N	0.675038	0.640145	0.695272
N8	N	0.944568	0.348121	0.225811
Ni1	Ni	0.254308	0.765043	0.844220
Ni2	Ni	0.497298	0.240656	0.315546
Ni3	Ni	0.741114	0.733269	0.835520
Ni4	Ni	1.002925	0.248248	0.357824
O1	O	0.142083	0.353408	0.394571
O2	O	0.380003	0.672853	0.913513
O3	O	0.376347	0.141921	0.371048
O4	O	0.127183	0.866045	0.883791
O5	O	0.464900	0.359777	0.440762
O6	O	0.219829	0.640150	0.980116
O7	O	0.017852	0.122519	0.490869
O8	O	0.277828	0.875828	0.995155
O9	O	0.622952	0.347330	0.357159
O10	O	0.874266	0.627539	0.867747
O11	O	0.857876	0.171152	0.428650
O12	O	0.603746	0.808049	0.909428
O13	O	0.990642	0.372467	0.492627
O14	O	0.743977	0.641562	1.003438
O15	O	0.525998	0.154100	0.482708
O16	O	0.768089	0.854299	0.956320
O17	O	0.628033	1.010075	0.775124
O18	O	0.890672	0.077965	0.889773
O19	O	0.377234	0.577846	0.386716
O20	O	0.621308	0.477186	0.917087
O21	O	0.612984	0.953465	0.403869
O22	O	0.871253	0.015910	0.245560
O23	O	0.378094	0.496089	0.754849
O24	O	0.115179	0.420335	0.891564
