data_NiPyC2_relax_sc211_meta_functionalized_OH_pbesol_relax_PM
_symmetry_space_group_name_H-M	'P1'
_cell_length_a	12.505617
_cell_length_b	12.523412
_cell_length_c	10.276810
_cell_angle_alpha	90.000000
_cell_angle_beta	91.268973
_cell_angle_gamma	90.000000
_symmetry_Int_Tables_number 1

loop_
_symmetry_equiv_pos_as_xyz
'x,y,z'

loop_
_atom_site_label
_atom_site_type_symbol
_atom_site_fract_x
_atom_site_fract_y
_atom_site_fract_z
C1	C	0.289286	0.970656	0.527920
C2	C	0.051073	0.029204	0.021603
C3	C	0.393258	0.008686	0.547665
C4	C	0.151870	0.986977	0.050733
C5	C	0.453888	0.962183	0.652738
C6	C	0.210658	0.034458	0.156714
C7	C	0.208682	0.521117	0.535876
C8	C	0.458068	0.466851	0.024485
C9	C	0.241265	0.608450	0.616350
C10	C	0.499537	0.386281	0.105154
C11	C	0.247944	0.890125	0.606710
C12	C	0.009052	0.112827	0.095225
C13	C	0.405847	0.881002	0.729381
C14	C	0.160603	0.117867	0.229322
C15	C	0.072270	0.621906	0.704755
C16	C	0.340486	0.374815	0.217156
C17	C	0.032390	0.542278	0.620277
C18	C	0.293436	0.457226	0.139774
C19	C	0.098787	0.491418	0.532532
C20	C	0.354085	0.504802	0.039021
C21	C	0.435166	0.093461	0.464187
C22	C	0.191922	0.897554	0.972613
C23	C	0.059091	0.403090	0.450822
C24	C	0.314149	0.592513	0.956163
C25	C	0.788097	0.983639	0.543033
C26	C	0.548445	0.031616	0.018485
C27	C	0.898890	0.010915	0.544368
C28	C	0.651539	0.992397	0.040766
C29	C	0.964385	0.958699	0.635570
C30	C	0.712590	0.039127	0.145662
C31	C	0.705548	0.522437	0.531826
C32	C	0.957550	0.482383	0.043349
C33	C	0.745658	0.607505	0.606977
C34	C	0.988189	0.389421	0.115127
C35	C	0.754569	0.894943	0.618953
C36	C	0.506472	0.111881	0.096884
C37	C	0.922947	0.879324	0.717052
C38	C	0.664285	0.122073	0.220185
C39	C	0.589543	0.616601	0.724449
C40	C	0.821043	0.377547	0.208947
C41	C	0.542337	0.531830	0.650402
C42	C	0.781710	0.461218	0.130540
C43	C	0.602998	0.482177	0.551041
C44	C	0.848248	0.514387	0.045042
C45	C	0.939397	0.096768	0.461394
C46	C	0.690738	0.904540	0.960537
C47	C	0.562474	0.392466	0.471078
C48	C	0.809075	0.604253	0.966282
H1	H	0.237686	1.004160	0.451916
H2	H	0.497208	-0.001765	0.942152
H3	H	0.047764	0.981542	0.648293
H4	H	0.322557	0.638731	0.611257
H5	H	0.067752	0.356067	0.104172
H6	H	0.167333	0.859438	0.592395
H7	H	0.426107	0.142662	0.081631
H8	H	0.450884	0.846394	0.811082
H9	H	0.202819	0.151927	0.313413
H10	H	0.023005	0.657304	0.778651
H11	H	0.294841	0.339385	0.295102
H12	H	1.002697	-0.003310	0.942022
H13	H	0.756223	0.487357	0.458668
H14	H	0.509757	0.501527	0.952144
H15	H	0.824967	0.640270	0.592879
H16	H	0.580498	0.356245	0.096120
H17	H	0.673155	0.865357	0.608053
H18	H	0.930833	0.146519	0.073264
H19	H	0.971717	0.842185	0.793047
H20	H	0.709146	0.157659	0.300870
H21	H	0.544917	0.652633	0.803131
H22	H	0.772252	0.339866	0.282017
H23	H	0.949668	0.517374	0.628486
H24	H	0.699466	0.487082	0.141248
H25	H	0.581526	0.947408	0.756585
H26	H	0.334445	0.050840	0.263506
H27	H	0.351055	0.473920	0.504456
H28	H	0.168247	0.444113	0.240554
H29	H	0.645289	1.035399	0.505383
H30	H	0.835988	0.052994	0.252773
H31	H	0.416717	0.546757	0.750488
H32	H	0.100585	0.523810	1.014059
N1	N	0.306183	0.846843	0.706438
N2	N	0.062938	0.154095	0.199735
N3	N	0.175424	0.654632	0.700065
N4	N	0.440627	0.342236	0.200562
N5	N	0.819659	0.847197	0.705455
N6	N	0.564049	0.153584	0.198079
N7	N	0.687890	0.652707	0.702736
N8	N	0.922870	0.342024	0.198291
Ni1	Ni	0.243563	0.749342	0.835789
Ni2	Ni	0.500582	0.244365	0.332695
Ni3	Ni	0.750611	0.751487	0.835411
Ni4	Ni	0.994112	0.248544	0.331391
O1	O	0.112026	0.362259	0.355471
O2	O	0.368409	0.630354	0.860363
O3	O	0.378104	0.134989	0.369236
O4	O	0.130482	0.852276	0.885413
O5	O	0.466428	0.357213	0.474844
O6	O	0.224191	0.638247	0.973663
O7	O	0.030721	0.140184	0.478431
O8	O	0.285877	0.857940	0.980822
O9	O	0.621775	0.343716	0.388694
O10	O	0.866992	0.652710	0.882254
O11	O	0.883665	0.135647	0.363360
O12	O	0.633283	0.866049	0.863349
O13	O	0.968339	0.359213	0.469829
O14	O	0.713373	0.640561	0.973626
O15	O	0.528815	0.132938	0.476991
O16	O	0.780275	0.858131	0.978738
O17	O	0.552351	-0.007208	0.681253
O18	O	0.307003	1.002896	0.189791
O19	O	0.277499	0.466366	0.468083
O20	O	0.194705	0.487391	0.164533
O21	O	0.720009	0.041790	0.475527
O22	O	0.809203	1.007503	0.176999
O23	O	0.444171	0.500977	0.676544
O24	O	0.027350	0.538899	0.980110
