data_NiPyC2_relax_sc211_meta_functionalized_O-C-N_pbesol_relax_PM
_symmetry_space_group_name_H-M	'P1'
_cell_length_a	12.505617
_cell_length_b	12.523412
_cell_length_c	10.276810
_cell_angle_alpha	90.000000
_cell_angle_beta	91.268973
_cell_angle_gamma	90.000000
_symmetry_Int_Tables_number 1

loop_
_symmetry_equiv_pos_as_xyz
'x,y,z'

loop_
_atom_site_label
_atom_site_type_symbol
_atom_site_fract_x
_atom_site_fract_y
_atom_site_fract_z
C1	C	0.281092	0.969773	0.525268
C2	C	0.030175	0.024194	0.035320
C3	C	0.383462	0.013172	0.542669
C4	C	0.131917	0.977581	0.047980
C5	C	0.446228	0.967357	0.642670
C6	C	0.196488	0.020688	0.147974
C7	C	0.227050	0.484642	0.577636
C8	C	0.472903	0.499508	0.073168
C9	C	0.265614	0.570372	0.653219
C10	C	0.508773	0.410758	0.145960
C11	C	0.246805	0.885797	0.604413
C12	C	-0.004215	0.106079	0.116891
C13	C	0.411303	0.879033	0.714341
C14	C	0.158953	0.102282	0.228618
C15	C	0.093171	0.626858	0.697588
C16	C	0.338293	0.381590	0.225195
C17	C	0.051910	0.541955	0.624126
C18	C	0.300104	0.467800	0.151308
C19	C	0.116709	0.468985	0.560125
C20	C	0.364757	0.527757	0.069815
C21	C	0.425376	0.096923	0.458117
C22	C	0.174247	0.891521	0.965008
C23	C	0.073194	0.383018	0.476819
C24	C	0.323638	0.612968	0.983376
C25	C	0.776425	0.975113	0.532368
C26	C	0.533007	0.031587	0.028833
C27	C	0.879552	0.016645	0.550587
C28	C	0.631496	0.979265	0.047278
C29	C	0.941677	0.967302	0.648455
C30	C	0.695421	0.020591	0.149007
C31	C	0.684322	0.539864	0.514252
C32	C	0.961730	0.451826	0.017069
C33	C	0.718910	0.625227	0.592393
C34	C	0.996582	0.368799	0.099269
C35	C	0.741265	0.889974	0.609135
C36	C	0.500642	0.117151	0.106529
C37	C	0.905875	0.877932	0.717158
C38	C	0.659482	0.104980	0.226553
C39	C	0.601966	0.578030	0.755809
C40	C	0.846623	0.390780	0.226625
C41	C	0.566689	0.490989	0.681616
C42	C	0.808067	0.472370	0.144961
C43	C	0.605418	0.470572	0.558042
C44	C	0.866286	0.507337	0.038380
C45	C	0.922224	0.102161	0.468400
C46	C	0.671327	0.889326	0.968130
C47	C	0.567152	0.381215	0.477604
C48	C	0.825039	0.598325	0.961104
C49	C	0.566700	1.106510	0.683819
C50	C	0.872431	0.038796	0.914152
C51	C	0.884176	0.474280	0.676110
C52	C	0.152812	0.544685	0.250778
C53	C	0.053994	1.105417	0.710244
C54	C	0.375674	0.047025	0.906033
C55	C	0.499233	0.370429	0.833344
C56	C	0.116799	0.441781	0.895407
H1	H	0.226502	1.001450	0.451211
H2	H	0.276849	0.990351	0.164814
H3	H	0.284038	0.430566	0.534394
H4	H	0.350550	0.583668	0.669153
H5	H	0.070500	0.326222	0.079352
H6	H	0.167232	0.852072	0.593573
H7	H	0.424247	0.156721	0.087150
H8	H	0.463185	0.843702	0.789045
H9	H	0.208673	0.135184	0.306698
H10	H	0.040123	0.680591	0.748550
H11	H	0.285381	0.337025	0.288169
H12	H	0.721741	1.009640	0.460350
H13	H	0.773498	0.986164	0.170296
H14	H	0.720643	0.527311	0.420444
H15	H	0.531550	0.545156	1.020446
H16	H	0.781319	0.678907	0.561240
H17	H	0.591985	0.386775	0.148023
H18	H	0.660864	0.858191	0.598599
H19	H	0.915933	0.140233	0.103782
H20	H	0.957099	0.840888	0.791149
H21	H	0.708135	0.136086	0.306726
H22	H	0.567047	0.596771	0.848797
H23	H	0.803117	0.364269	0.310967
H24	H	0.732741	0.510771	0.166788
N1	N	0.310905	0.842654	0.698369
N2	N	0.059464	0.143483	0.212720
N3	N	0.199340	0.639789	0.711790
N4	N	0.441916	0.353742	0.220627
N5	N	0.804965	0.842965	0.700703
N6	N	0.562620	0.150807	0.205609
N7	N	0.678697	0.643189	0.711385
N8	N	0.940864	0.341387	0.204277
N9	N	0.591791	1.196635	0.702035
N10	N	0.791452	0.079939	0.881744
N11	N	0.824720	0.421855	0.737499
N12	N	0.110939	0.595230	0.332286
N13	N	0.066080	1.194848	0.745039
N14	N	0.293116	0.085078	0.873957
N15	N	0.503080	0.316784	0.928242
N16	N	0.204894	0.415537	0.872442
Ni1	Ni	0.253256	0.748765	0.836558
Ni2	Ni	0.500698	0.243441	0.339145
Ni3	Ni	0.747496	0.745530	0.836553
Ni4	Ni	0.999851	0.243601	0.339778
O1	O	0.130495	0.331214	0.395753
O2	O	0.382409	0.658828	0.898811
O3	O	0.369742	0.149869	0.374574
O4	O	0.120774	0.840505	0.877221
O5	O	0.472664	0.342569	0.486229
O6	O	0.226573	0.645821	0.984288
O7	O	0.021361	0.130242	0.476208
O8	O	0.272303	0.861136	0.977331
O9	O	0.624494	0.339232	0.389038
O10	O	0.877153	0.649277	0.874578
O11	O	0.867210	0.152448	0.381571
O12	O	0.616088	0.837447	0.882891
O13	O	0.974703	0.354795	0.476454
O14	O	0.730147	0.634179	0.979071
O15	O	0.525718	0.121806	0.462419
O16	O	0.768643	0.856580	0.980566
O17	O	0.545884	0.005601	0.684774
O18	O	0.960861	0.988335	0.939236
O19	O	0.939780	0.540570	0.610868
O20	O	0.189524	0.489433	0.156637
O21	O	0.042321	0.004339	0.690520
O22	O	0.464708	0.997680	0.930919
O23	O	0.485891	0.424491	0.729047
O24	O	0.022381	0.480578	0.912008
