data_NiPyC2_relax_sc211_ortho_functionalized_C-N_vdw-df2_relax_PM
_symmetry_space_group_name_H-M	'P1'
_cell_length_a	12.505617
_cell_length_b	12.523412
_cell_length_c	10.276810
_cell_angle_alpha	90.000000
_cell_angle_beta	91.268973
_cell_angle_gamma	90.000000
_symmetry_Int_Tables_number 1

loop_
_symmetry_equiv_pos_as_xyz
'x,y,z'

loop_
_atom_site_label
_atom_site_type_symbol
_atom_site_fract_x
_atom_site_fract_y
_atom_site_fract_z
C1	C	0.299810	0.970433	0.524930
C2	C	0.046326	0.037463	0.010373
C3	C	0.394500	0.022127	0.563104
C4	C	0.140515	0.984467	0.044106
C5	C	0.446358	0.993734	0.679844
C6	C	0.206280	0.022361	0.145767
C7	C	0.227731	0.516488	0.542483
C8	C	0.402262	0.443720	0.001511
C9	C	0.250655	0.611174	0.610622
C10	C	0.463159	0.378071	0.086038
C11	C	0.261428	0.887756	0.602897
C12	C	0.014764	0.124212	0.086995
C13	C	0.400952	0.912200	0.756086
C14	C	0.172321	0.112719	0.214895
C15	C	0.079365	0.615071	0.696594
C16	C	0.325944	0.376401	0.236326
C17	C	0.050857	0.519717	0.633068
C18	C	0.265822	0.450646	0.163039
C19	C	0.126785	0.470076	0.556512
C20	C	0.305627	0.484330	0.044490
C21	C	0.439394	0.105555	0.480004
C22	C	0.169870	0.890420	0.970253
C23	C	0.093281	0.373378	0.487258
C24	C	0.253597	0.571010	0.969271
C25	C	0.795819	0.974772	0.512384
C26	C	0.589776	0.053088	0.012094
C27	C	0.900457	0.010151	0.533573
C28	C	0.682198	1.005435	0.062727
C29	C	0.958568	0.978206	0.644037
C30	C	0.723284	0.040403	0.182206
C31	C	0.682761	0.562480	0.505046
C32	C	0.948763	0.455024	0.034895
C33	C	0.729942	0.635933	0.591442
C34	C	0.999945	0.389394	0.126692
C35	C	0.752318	0.901865	0.601155
C36	C	0.529424	0.120005	0.093403
C37	C	0.909911	0.907908	0.729376
C38	C	0.666749	0.118567	0.251374
C39	C	0.592204	0.613712	0.739377
C40	C	0.848623	0.389532	0.259445
C41	C	0.540687	0.538281	0.657188
C42	C	0.793401	0.458932	0.173000
C43	C	0.588656	0.510565	0.540473
C44	C	0.844360	0.486795	0.058644
C45	C	0.949574	0.086127	0.446436
C46	C	0.734141	0.917316	0.992163
C47	C	0.545683	0.422047	0.460565
C48	C	0.788672	0.547526	0.952045
C49	C	0.441282	0.885252	0.880771
C50	C	0.914043	0.169515	0.058829
C51	C	-0.001228	0.664585	0.769030
C52	C	0.567590	0.354091	0.048624
C53	C	0.647009	0.864209	0.580027
C54	C	0.425034	0.146255	0.050032
C55	C	0.553381	0.634599	0.864453
C56	C	0.802504	0.349465	0.373569
H1	H	0.256343	0.992122	0.437825
H2	H	0.562264	0.039415	0.914559
H3	H	0.037988	1.006458	0.665084
H4	H	0.280780	0.984686	0.171212
H5	H	0.288226	0.480549	0.484385
H6	H	-0.010533	0.478281	0.948818
H7	H	0.327925	0.648787	0.606094
H8	H	0.079190	0.359350	0.112451
H9	H	0.189364	0.845286	0.577149
H10	H	0.219661	0.145798	0.293186
H11	H	0.297468	0.345561	0.325867
H12	H	0.467968	0.501190	0.687835
H13	H	0.192669	0.481127	0.200625
H14	H	0.747243	1.000730	0.431576
H15	H	0.994958	0.012057	0.931839
H16	H	0.518672	1.032796	0.711840
H17	H	0.797288	1.010421	0.221211
H18	H	0.720370	0.546441	0.414589
H19	H	0.433661	0.463974	0.908910
H20	H	0.804191	0.674683	0.569378
H21	H	0.950747	0.881592	0.815419
H22	H	0.698402	0.151176	0.340595
H23	H	0.972041	0.487227	0.644402
H24	H	0.714206	0.485234	0.194645
N1	N	0.311318	0.857916	0.714581
N2	N	0.077469	0.159701	0.189596
N3	N	0.179072	0.659241	0.688150
N4	N	0.422372	0.342567	0.200914
N5	N	0.811949	0.866952	0.706487
N6	N	0.570090	0.154343	0.211704
N7	N	0.686991	0.661097	0.706244
N8	N	0.950382	0.355005	0.233602
N9	N	0.467871	0.869759	0.988733
N10	N	0.827774	0.195997	0.028701
N11	N	0.921906	0.693786	0.817086
N12	N	0.651753	0.345001	0.003734
N13	N	0.560702	0.833645	0.556835
N14	N	0.340441	0.162921	0.004698
N15	N	0.525958	0.641845	0.971987
N16	N	0.768307	0.312309	0.468195
Ni1	Ni	0.240694	0.752644	0.835074
Ni2	Ni	0.497847	0.253582	0.339760
Ni3	Ni	0.772771	0.752652	0.836440
Ni4	Ni	1.016973	0.240575	0.339733
O1	O	0.146956	0.331453	0.394729
O2	O	0.315333	0.623785	0.890584
O3	O	0.382659	0.147584	0.385917
O4	O	0.122766	0.865241	0.861253
O5	O	0.464274	0.366563	0.492132
O6	O	0.157593	0.596775	0.981191
O7	O	0.048416	0.113282	0.460193
O8	O	0.246713	0.828056	1.006634
O9	O	0.591648	0.391750	0.355014
O10	O	0.784070	0.503780	0.843504
O11	O	0.895830	0.134627	0.355589
O12	O	0.677051	0.864006	0.906569
O13	O	1.002586	0.329168	0.508307
O14	O	0.756717	0.642969	0.979960
O15	O	0.534510	0.141680	0.493886
O16	O	0.830097	0.891073	1.012730
