data_NiPyC2_relax_sc211_meta_functionalized_SH_pbesol_relax_frozen_parent_atoms_PM
_symmetry_space_group_name_H-M	'P1'
_cell_length_a	37.516850
_cell_length_b	37.570237
_cell_length_c	30.830430
_cell_angle_alpha	90.000000
_cell_angle_beta	91.268973
_cell_angle_gamma	90.000000
_symmetry_Int_Tables_number 1

loop_
_symmetry_equiv_pos_as_xyz
'x,y,z'

loop_
_atom_site_label
_atom_site_type_symbol
_atom_site_fract_x
_atom_site_fract_y
_atom_site_fract_z
C1	C	0.096071	0.323350	0.173995
C2	C	0.012793	0.010369	0.007436
C3	C	0.130211	0.003923	0.182164
C4	C	0.046748	0.329248	0.015382
C5	C	0.150638	0.323401	0.216790
C6	C	0.067507	0.009451	0.049964
C7	C	0.069394	0.176568	0.175461
C8	C	0.152848	0.157136	0.009301
C9	C	0.081712	0.204444	0.202145
C10	C	0.165606	0.129559	0.036206
C11	C	0.083159	0.296402	0.201068
C12	C	0.000356	0.037411	0.034749
C13	C	0.135992	0.296461	0.242517
C14	C	0.053312	0.036516	0.075937
C15	C	0.029621	0.202994	0.242451
C16	C	0.113630	0.130544	0.076465
C17	C	0.015642	0.175026	0.217104
C18	C	0.099219	0.158237	0.050918
C19	C	0.036055	0.161423	0.183372
C20	C	0.119277	0.171885	0.016879
C21	C	0.144437	0.033106	0.155540
C22	C	0.060506	0.299907	0.321891
C23	C	0.022459	0.131491	0.156892
C24	C	0.105348	0.201391	0.323036
C25	C	0.262737	0.323350	0.173995
C26	C	0.179460	0.010369	0.007436
C27	C	0.296878	0.003923	0.182164
C28	C	0.213415	0.329248	0.015382
C29	C	0.317305	0.323401	0.216790
C30	C	0.234173	0.009451	0.049964
C31	C	0.236061	0.176568	0.175461
C32	C	0.319515	0.157136	0.009301
C33	C	0.248379	0.204444	0.202145
C34	C	0.332273	0.129559	0.036206
C35	C	0.249825	0.296402	0.201068
C36	C	0.167023	0.037411	0.034749
C37	C	0.302659	0.296461	0.242517
C38	C	0.219978	0.036516	0.075937
C39	C	0.196287	0.202994	0.242451
C40	C	0.280297	0.130544	0.076465
C41	C	0.182308	0.175026	0.217104
C42	C	0.265886	0.158237	0.050918
C43	C	0.202721	0.161423	0.183372
C44	C	0.285944	0.171885	0.016879
C45	C	0.311103	0.033106	0.155540
C46	C	0.227172	0.299907	0.321891
C47	C	0.189126	0.131491	0.156892
C48	C	0.272014	0.201391	0.323036
H1	H	0.162179	0.000897	0.314500
H2	H	0.094113	0.332888	0.057534
H3	H	0.107547	0.216835	0.197545
H4	H	0.024989	0.117617	0.031676
H5	H	0.056718	0.285041	0.196187
H6	H	0.140774	0.049244	0.029962
H7	H	0.151123	0.285058	0.269587
H8	H	0.068746	0.047701	0.102932
H9	H	0.014576	0.214315	0.268869
H10	H	0.098793	0.119175	0.103017
H11	H	0.072984	0.168400	0.058421
H12	H	0.245708	0.333192	0.147704
H13	H	0.177354	0.332935	0.224507
H14	H	0.252900	0.166965	0.149761
H15	H	0.274214	0.216835	0.197545
H16	H	0.191656	0.117617	0.031676
H17	H	0.223385	0.285041	0.196187
H18	H	0.307441	0.049244	0.029962
H19	H	0.317790	0.285058	0.269587
H20	H	0.235413	0.047701	0.102932
H21	H	0.181243	0.214315	0.268869
H22	H	0.265459	0.119175	0.103017
H23	H	0.322891	0.164410	0.224501
H24	H	0.239651	0.168400	0.058421
H25	H	0.039040	0.016207	0.151811
H26	H	0.273336	0.299160	0.352543
H27	H	0.125280	0.147285	0.155634
H28	H	0.220885	0.195335	0.329492
H29	H	0.015993	0.041926	0.222047
H30	H	0.257283	0.292465	0.083683
H31	H	0.151762	0.122643	0.224836
H32	H	0.053759	0.195038	0.328582
N1	N	0.102812	0.283751	0.234943
N2	N	0.020243	0.049619	0.068684
N3	N	0.062181	0.216770	0.235279
N4	N	0.146270	0.116976	0.069347
N5	N	0.269479	0.283751	0.234943
N6	N	0.186910	0.049619	0.068684
N7	N	0.228848	0.216770	0.235279
N8	N	0.312937	0.116976	0.069347
Ni1	Ni	0.082334	0.250495	0.278775
Ni2	Ni	0.166657	0.082666	0.113059
Ni3	Ni	0.249001	0.250495	0.278775
Ni4	Ni	0.333324	0.082666	0.113059
O1	O	0.040926	0.115896	0.127624
O2	O	0.123736	0.216992	0.293764
O3	O	0.125877	0.049169	0.125726
O4	O	0.041699	0.284117	0.292087
O5	O	0.157690	0.118720	0.160998
O6	O	0.073712	0.213805	0.326626
O7	O	0.009613	0.045053	0.160359
O8	O	0.092229	0.287586	0.326466
O9	O	0.207593	0.115896	0.127624
O10	O	0.290403	0.216992	0.293764
O11	O	0.292543	0.049169	0.125726
O12	O	0.208366	0.284117	0.292087
O13	O	0.324356	0.118720	0.160998
O14	O	0.240379	0.213805	0.326626
O15	O	0.176280	0.045053	0.160359
O16	O	0.258895	0.287586	0.326466
S1	S	0.063578	-0.008343	0.133106
S2	S	0.317667	0.345476	0.297637
S3	S	0.102009	0.173176	0.136995
S4	S	0.183409	0.160088	0.303575
S5	S	0.022768	0.008970	0.239677
S6	S	0.274094	0.322577	0.069942
S7	S	0.143887	0.156311	0.238441
S8	S	0.018115	0.161891	0.305378
C49	C	0.096071	0.323350	0.507328
C50	C	0.012793	0.010369	0.340769
C51	C	0.130211	0.003923	0.515497
C52	C	0.046748	0.329248	0.348715
C53	C	0.150638	0.323401	0.550124
C54	C	0.067507	0.009451	0.383298
C55	C	0.069394	0.176568	0.508795
C56	C	0.152848	0.157136	0.342635
C57	C	0.081712	0.204444	0.535478
C58	C	0.165606	0.129559	0.369539
C59	C	0.083159	0.296402	0.534401
C60	C	0.000356	0.037411	0.368082
C61	C	0.135992	0.296461	0.575851
C62	C	0.053312	0.036516	0.409271
C63	C	0.029621	0.202994	0.575784
C64	C	0.113630	0.130544	0.409798
C65	C	0.015642	0.175026	0.550437
C66	C	0.099219	0.158237	0.384251
C67	C	0.036055	0.161423	0.516705
C68	C	0.119277	0.171885	0.350213
C69	C	0.144437	0.033106	0.488874
C70	C	0.060506	0.299907	0.655224
C71	C	0.022459	0.131491	0.490225
C72	C	0.105348	0.201391	0.656369
C73	C	0.262737	0.323350	0.507328
C74	C	0.179460	0.010369	0.340769
C75	C	0.296878	0.003923	0.515497
C76	C	0.213415	0.329248	0.348715
C77	C	0.317305	0.323401	0.550124
C78	C	0.234173	0.009451	0.383298
C79	C	0.236061	0.176568	0.508795
C80	C	0.319515	0.157136	0.342635
C81	C	0.248379	0.204444	0.535478
C82	C	0.332273	0.129559	0.369539
C83	C	0.249825	0.296402	0.534401
C84	C	0.167023	0.037411	0.368082
C85	C	0.302659	0.296461	0.575851
C86	C	0.219978	0.036516	0.409271
C87	C	0.196287	0.202994	0.575784
C88	C	0.280297	0.130544	0.409798
C89	C	0.182308	0.175026	0.550437
C90	C	0.265886	0.158237	0.384251
C91	C	0.202721	0.161423	0.516705
C92	C	0.285944	0.171885	0.350213
C93	C	0.311103	0.033106	0.488874
C94	C	0.227172	0.299907	0.655224
C95	C	0.189126	0.131491	0.490225
C96	C	0.272014	0.201391	0.656369
H33	H	0.162179	0.000897	0.647833
H34	H	0.094113	0.332888	0.390867
H35	H	0.107547	0.216835	0.530878
H36	H	0.024989	0.117617	0.365009
H37	H	0.056718	0.285041	0.529520
H38	H	0.140774	0.049244	0.363295
H39	H	0.151123	0.285058	0.602920
H40	H	0.068746	0.047701	0.436266
H41	H	0.014576	0.214315	0.602203
H42	H	0.098793	0.119175	0.436350
H43	H	0.072984	0.168400	0.391755
H44	H	0.245708	0.333192	0.481038
H45	H	0.177354	0.332935	0.557840
H46	H	0.252900	0.166965	0.483094
H47	H	0.274214	0.216835	0.530878
H48	H	0.191656	0.117617	0.365009
H49	H	0.223385	0.285041	0.529520
H50	H	0.307441	0.049244	0.363295
H51	H	0.317790	0.285058	0.602920
H52	H	0.235413	0.047701	0.436266
H53	H	0.181243	0.214315	0.602203
H54	H	0.265459	0.119175	0.436350
H55	H	0.322891	0.164410	0.557834
H56	H	0.239651	0.168400	0.391755
H57	H	0.039040	0.016207	0.485145
H58	H	0.273336	0.299160	0.685877
H59	H	0.125280	0.147285	0.488967
H60	H	0.220885	0.195335	0.662826
H61	H	0.015993	0.041926	0.555380
H62	H	0.257283	0.292465	0.417017
H63	H	0.151762	0.122643	0.558169
H64	H	0.053759	0.195038	0.661915
N9	N	0.102812	0.283751	0.568276
N10	N	0.020243	0.049619	0.402017
N11	N	0.062181	0.216770	0.568613
N12	N	0.146270	0.116976	0.402680
N13	N	0.269479	0.283751	0.568276
N14	N	0.186910	0.049619	0.402017
N15	N	0.228848	0.216770	0.568613
N16	N	0.312937	0.116976	0.402680
Ni5	Ni	0.082334	0.250495	0.612109
Ni6	Ni	0.166657	0.082666	0.446393
Ni7	Ni	0.249001	0.250495	0.612109
Ni8	Ni	0.333324	0.082666	0.446393
O17	O	0.040926	0.115896	0.460958
O18	O	0.123736	0.216992	0.627097
O19	O	0.125877	0.049169	0.459059
O20	O	0.041699	0.284117	0.625420
O21	O	0.157690	0.118720	0.494331
O22	O	0.073712	0.213805	0.659959
O23	O	0.009613	0.045053	0.493693
O24	O	0.092229	0.287586	0.659800
O25	O	0.207593	0.115896	0.460958
O26	O	0.290403	0.216992	0.627097
O27	O	0.292543	0.049169	0.459059
O28	O	0.208366	0.284117	0.625420
O29	O	0.324356	0.118720	0.494331
O30	O	0.240379	0.213805	0.659959
O31	O	0.176280	0.045053	0.493693
O32	O	0.258895	0.287586	0.659800
S9	S	0.063578	-0.008343	0.466440
S10	S	0.317667	0.345476	0.630970
S11	S	0.102009	0.173176	0.470328
S12	S	0.183409	0.160088	0.636908
S13	S	0.022768	0.008970	0.573010
S14	S	0.274094	0.322577	0.403276
S15	S	0.143887	0.156311	0.571774
S16	S	0.018115	0.161891	0.638711
C97	C	0.096071	0.323350	0.840661
C98	C	0.012793	0.010369	0.674103
C99	C	0.130211	0.003923	0.848831
C100	C	0.046748	0.329248	0.682049
C101	C	0.150638	0.323401	0.883457
C102	C	0.067507	0.009451	0.716631
C103	C	0.069394	0.176568	0.842128
C104	C	0.152848	0.157136	0.675968
C105	C	0.081712	0.204444	0.868812
C106	C	0.165606	0.129559	0.702872
C107	C	0.083159	0.296402	0.867734
C108	C	0.000356	0.037411	0.701416
C109	C	0.135992	0.296461	0.909184
C110	C	0.053312	0.036516	0.742604
C111	C	0.029621	0.202994	0.909117
C112	C	0.113630	0.130544	0.743131
C113	C	0.015642	0.175026	0.883771
C114	C	0.099219	0.158237	0.717585
C115	C	0.036055	0.161423	0.850039
C116	C	0.119277	0.171885	0.683546
C117	C	0.144437	0.033106	0.822207
C118	C	0.060506	0.299907	0.988557
C119	C	0.022459	0.131491	0.823559
C120	C	0.105348	0.201391	0.989702
C121	C	0.262737	0.323350	0.840661
C122	C	0.179460	0.010369	0.674103
C123	C	0.296878	0.003923	0.848831
C124	C	0.213415	0.329248	0.682049
C125	C	0.317305	0.323401	0.883457
C126	C	0.234173	0.009451	0.716631
C127	C	0.236061	0.176568	0.842128
C128	C	0.319515	0.157136	0.675968
C129	C	0.248379	0.204444	0.868812
C130	C	0.332273	0.129559	0.702872
C131	C	0.249825	0.296402	0.867734
C132	C	0.167023	0.037411	0.701416
C133	C	0.302659	0.296461	0.909184
C134	C	0.219978	0.036516	0.742604
C135	C	0.196287	0.202994	0.909117
C136	C	0.280297	0.130544	0.743131
C137	C	0.182308	0.175026	0.883771
C138	C	0.265886	0.158237	0.717585
C139	C	0.202721	0.161423	0.850039
C140	C	0.285944	0.171885	0.683546
C141	C	0.311103	0.033106	0.822207
C142	C	0.227172	0.299907	0.988557
C143	C	0.189126	0.131491	0.823559
C144	C	0.272014	0.201391	0.989702
H65	H	0.162179	0.000897	0.981166
H66	H	0.094113	0.332888	0.724201
H67	H	0.107547	0.216835	0.864212
H68	H	0.024989	0.117617	0.698343
H69	H	0.056718	0.285041	0.862853
H70	H	0.140774	0.049244	0.696629
H71	H	0.151123	0.285058	0.936254
H72	H	0.068746	0.047701	0.769599
H73	H	0.014576	0.214315	0.935536
H74	H	0.098793	0.119175	0.769684
H75	H	0.072984	0.168400	0.725088
H76	H	0.245708	0.333192	0.814371
H77	H	0.177354	0.332935	0.891173
H78	H	0.252900	0.166965	0.816427
H79	H	0.274214	0.216835	0.864212
H80	H	0.191656	0.117617	0.698343
H81	H	0.223385	0.285041	0.862853
H82	H	0.307441	0.049244	0.696629
H83	H	0.317790	0.285058	0.936254
H84	H	0.235413	0.047701	0.769599
H85	H	0.181243	0.214315	0.935536
H86	H	0.265459	0.119175	0.769684
H87	H	0.322891	0.164410	0.891167
H88	H	0.239651	0.168400	0.725088
H89	H	0.039040	0.016207	0.818478
H90	H	0.273336	0.299160	1.019210
H91	H	0.125280	0.147285	0.822300
H92	H	0.220885	0.195335	0.996159
H93	H	0.015993	0.041926	0.888714
H94	H	0.257283	0.292465	0.750350
H95	H	0.151762	0.122643	0.891502
H96	H	0.053759	0.195038	0.995249
N17	N	0.102812	0.283751	0.901609
N18	N	0.020243	0.049619	0.735351
N19	N	0.062181	0.216770	0.901946
N20	N	0.146270	0.116976	0.736014
N21	N	0.269479	0.283751	0.901609
N22	N	0.186910	0.049619	0.735351
N23	N	0.228848	0.216770	0.901946
N24	N	0.312937	0.116976	0.736014
Ni9	Ni	0.082334	0.250495	0.945442
Ni10	Ni	0.166657	0.082666	0.779726
Ni11	Ni	0.249001	0.250495	0.945442
Ni12	Ni	0.333324	0.082666	0.779726
O33	O	0.040926	0.115896	0.794291
O34	O	0.123736	0.216992	0.960431
O35	O	0.125877	0.049169	0.792393
O36	O	0.041699	0.284117	0.958754
O37	O	0.157690	0.118720	0.827665
O38	O	0.073712	0.213805	0.993292
O39	O	0.009613	0.045053	0.827026
O40	O	0.092229	0.287586	0.993133
O41	O	0.207593	0.115896	0.794291
O42	O	0.290403	0.216992	0.960431
O43	O	0.292543	0.049169	0.792393
O44	O	0.208366	0.284117	0.958754
O45	O	0.324356	0.118720	0.827665
O46	O	0.240379	0.213805	0.993292
O47	O	0.176280	0.045053	0.827026
O48	O	0.258895	0.287586	0.993133
S17	S	0.063578	-0.008343	0.799773
S18	S	0.317667	0.345476	0.964303
S19	S	0.102009	0.173176	0.803661
S20	S	0.183409	0.160088	0.970241
S21	S	0.022768	0.008970	0.906344
S22	S	0.274094	0.322577	0.736609
S23	S	0.143887	0.156311	0.905108
S24	S	0.018115	0.161891	0.972044
C145	C	0.096071	0.656683	0.173995
C146	C	0.012793	0.343702	0.007436
C147	C	0.130211	0.337257	0.182164
C148	C	0.046748	0.662581	0.015382
C149	C	0.150638	0.656734	0.216790
C150	C	0.067507	0.342784	0.049964
C151	C	0.069394	0.509901	0.175461
C152	C	0.152848	0.490470	0.009301
C153	C	0.081712	0.537777	0.202145
C154	C	0.165606	0.462892	0.036206
C155	C	0.083159	0.629735	0.201068
C156	C	0.000356	0.370744	0.034749
C157	C	0.135992	0.629794	0.242517
C158	C	0.053312	0.369849	0.075937
C159	C	0.029621	0.536328	0.242451
C160	C	0.113630	0.463878	0.076465
C161	C	0.015642	0.508360	0.217104
C162	C	0.099219	0.491570	0.050918
C163	C	0.036055	0.494757	0.183372
C164	C	0.119277	0.505219	0.016879
C165	C	0.144437	0.366440	0.155540
C166	C	0.060506	0.633240	0.321891
C167	C	0.022459	0.464825	0.156892
C168	C	0.105348	0.534724	0.323036
C169	C	0.262737	0.656683	0.173995
C170	C	0.179460	0.343702	0.007436
C171	C	0.296878	0.337257	0.182164
C172	C	0.213415	0.662581	0.015382
C173	C	0.317305	0.656734	0.216790
C174	C	0.234173	0.342784	0.049964
C175	C	0.236061	0.509901	0.175461
C176	C	0.319515	0.490470	0.009301
C177	C	0.248379	0.537777	0.202145
C178	C	0.332273	0.462892	0.036206
C179	C	0.249825	0.629735	0.201068
C180	C	0.167023	0.370744	0.034749
C181	C	0.302659	0.629794	0.242517
C182	C	0.219978	0.369849	0.075937
C183	C	0.196287	0.536328	0.242451
C184	C	0.280297	0.463878	0.076465
C185	C	0.182308	0.508360	0.217104
C186	C	0.265886	0.491570	0.050918
C187	C	0.202721	0.494757	0.183372
C188	C	0.285944	0.505219	0.016879
C189	C	0.311103	0.366440	0.155540
C190	C	0.227172	0.633240	0.321891
C191	C	0.189126	0.464825	0.156892
C192	C	0.272014	0.534724	0.323036
H97	H	0.162179	0.334231	0.314500
H98	H	0.094113	0.666222	0.057534
H99	H	0.107547	0.550169	0.197545
H100	H	0.024989	0.450950	0.031676
H101	H	0.056718	0.618374	0.196187
H102	H	0.140774	0.382577	0.029962
H103	H	0.151123	0.618391	0.269587
H104	H	0.068746	0.381034	0.102932
H105	H	0.014576	0.547648	0.268869
H106	H	0.098793	0.452509	0.103017
H107	H	0.072984	0.501734	0.058421
H108	H	0.245708	0.666525	0.147704
H109	H	0.177354	0.666268	0.224507
H110	H	0.252900	0.500298	0.149761
H111	H	0.274214	0.550169	0.197545
H112	H	0.191656	0.450950	0.031676
H113	H	0.223385	0.618374	0.196187
H114	H	0.307441	0.382577	0.029962
H115	H	0.317790	0.618391	0.269587
H116	H	0.235413	0.381034	0.102932
H117	H	0.181243	0.547648	0.268869
H118	H	0.265459	0.452509	0.103017
H119	H	0.322891	0.497744	0.224501
H120	H	0.239651	0.501734	0.058421
H121	H	0.039040	0.349541	0.151811
H122	H	0.273336	0.632493	0.352543
H123	H	0.125280	0.480618	0.155634
H124	H	0.220885	0.528668	0.329492
H125	H	0.015993	0.375259	0.222047
H126	H	0.257283	0.625798	0.083683
H127	H	0.151762	0.455976	0.224836
H128	H	0.053759	0.528371	0.328582
N25	N	0.102812	0.617084	0.234943
N26	N	0.020243	0.382952	0.068684
N27	N	0.062181	0.550103	0.235279
N28	N	0.146270	0.450309	0.069347
N29	N	0.269479	0.617084	0.234943
N30	N	0.186910	0.382952	0.068684
N31	N	0.228848	0.550103	0.235279
N32	N	0.312937	0.450309	0.069347
Ni13	Ni	0.082334	0.583829	0.278775
Ni14	Ni	0.166657	0.416000	0.113059
Ni15	Ni	0.249001	0.583829	0.278775
Ni16	Ni	0.333324	0.416000	0.113059
O49	O	0.040926	0.449230	0.127624
O50	O	0.123736	0.550326	0.293764
O51	O	0.125877	0.382502	0.125726
O52	O	0.041699	0.617451	0.292087
O53	O	0.157690	0.452053	0.160998
O54	O	0.073712	0.547138	0.326626
O55	O	0.009613	0.378386	0.160359
O56	O	0.092229	0.620919	0.326466
O57	O	0.207593	0.449230	0.127624
O58	O	0.290403	0.550326	0.293764
O59	O	0.292543	0.382502	0.125726
O60	O	0.208366	0.617451	0.292087
O61	O	0.324356	0.452053	0.160998
O62	O	0.240379	0.547138	0.326626
O63	O	0.176280	0.378386	0.160359
O64	O	0.258895	0.620919	0.326466
S25	S	0.063578	0.324991	0.133106
S26	S	0.317667	0.678809	0.297637
S27	S	0.102009	0.506509	0.136995
S28	S	0.183409	0.493422	0.303575
S29	S	0.022768	0.342303	0.239677
S30	S	0.274094	0.655910	0.069942
S31	S	0.143887	0.489644	0.238441
S32	S	0.018115	0.495224	0.305378
C193	C	0.096071	0.656683	0.507328
C194	C	0.012793	0.343702	0.340769
C195	C	0.130211	0.337257	0.515497
C196	C	0.046748	0.662581	0.348715
C197	C	0.150638	0.656734	0.550124
C198	C	0.067507	0.342784	0.383298
C199	C	0.069394	0.509901	0.508795
C200	C	0.152848	0.490470	0.342635
C201	C	0.081712	0.537777	0.535478
C202	C	0.165606	0.462892	0.369539
C203	C	0.083159	0.629735	0.534401
C204	C	0.000356	0.370744	0.368082
C205	C	0.135992	0.629794	0.575851
C206	C	0.053312	0.369849	0.409271
C207	C	0.029621	0.536328	0.575784
C208	C	0.113630	0.463878	0.409798
C209	C	0.015642	0.508360	0.550437
C210	C	0.099219	0.491570	0.384251
C211	C	0.036055	0.494757	0.516705
C212	C	0.119277	0.505219	0.350213
C213	C	0.144437	0.366440	0.488874
C214	C	0.060506	0.633240	0.655224
C215	C	0.022459	0.464825	0.490225
C216	C	0.105348	0.534724	0.656369
C217	C	0.262737	0.656683	0.507328
C218	C	0.179460	0.343702	0.340769
C219	C	0.296878	0.337257	0.515497
C220	C	0.213415	0.662581	0.348715
C221	C	0.317305	0.656734	0.550124
C222	C	0.234173	0.342784	0.383298
C223	C	0.236061	0.509901	0.508795
C224	C	0.319515	0.490470	0.342635
C225	C	0.248379	0.537777	0.535478
C226	C	0.332273	0.462892	0.369539
C227	C	0.249825	0.629735	0.534401
C228	C	0.167023	0.370744	0.368082
C229	C	0.302659	0.629794	0.575851
C230	C	0.219978	0.369849	0.409271
C231	C	0.196287	0.536328	0.575784
C232	C	0.280297	0.463878	0.409798
C233	C	0.182308	0.508360	0.550437
C234	C	0.265886	0.491570	0.384251
C235	C	0.202721	0.494757	0.516705
C236	C	0.285944	0.505219	0.350213
C237	C	0.311103	0.366440	0.488874
C238	C	0.227172	0.633240	0.655224
C239	C	0.189126	0.464825	0.490225
C240	C	0.272014	0.534724	0.656369
H129	H	0.162179	0.334231	0.647833
H130	H	0.094113	0.666222	0.390867
H131	H	0.107547	0.550169	0.530878
H132	H	0.024989	0.450950	0.365009
H133	H	0.056718	0.618374	0.529520
H134	H	0.140774	0.382577	0.363295
H135	H	0.151123	0.618391	0.602920
H136	H	0.068746	0.381034	0.436266
H137	H	0.014576	0.547648	0.602203
H138	H	0.098793	0.452509	0.436350
H139	H	0.072984	0.501734	0.391755
H140	H	0.245708	0.666525	0.481038
H141	H	0.177354	0.666268	0.557840
H142	H	0.252900	0.500298	0.483094
H143	H	0.274214	0.550169	0.530878
H144	H	0.191656	0.450950	0.365009
H145	H	0.223385	0.618374	0.529520
H146	H	0.307441	0.382577	0.363295
H147	H	0.317790	0.618391	0.602920
H148	H	0.235413	0.381034	0.436266
H149	H	0.181243	0.547648	0.602203
H150	H	0.265459	0.452509	0.436350
H151	H	0.322891	0.497744	0.557834
H152	H	0.239651	0.501734	0.391755
H153	H	0.039040	0.349541	0.485145
H154	H	0.273336	0.632493	0.685877
H155	H	0.125280	0.480618	0.488967
H156	H	0.220885	0.528668	0.662826
H157	H	0.015993	0.375259	0.555380
H158	H	0.257283	0.625798	0.417017
H159	H	0.151762	0.455976	0.558169
H160	H	0.053759	0.528371	0.661915
N33	N	0.102812	0.617084	0.568276
N34	N	0.020243	0.382952	0.402017
N35	N	0.062181	0.550103	0.568613
N36	N	0.146270	0.450309	0.402680
N37	N	0.269479	0.617084	0.568276
N38	N	0.186910	0.382952	0.402017
N39	N	0.228848	0.550103	0.568613
N40	N	0.312937	0.450309	0.402680
Ni17	Ni	0.082334	0.583829	0.612109
Ni18	Ni	0.166657	0.416000	0.446393
Ni19	Ni	0.249001	0.583829	0.612109
Ni20	Ni	0.333324	0.416000	0.446393
O65	O	0.040926	0.449230	0.460958
O66	O	0.123736	0.550326	0.627097
O67	O	0.125877	0.382502	0.459059
O68	O	0.041699	0.617451	0.625420
O69	O	0.157690	0.452053	0.494331
O70	O	0.073712	0.547138	0.659959
O71	O	0.009613	0.378386	0.493693
O72	O	0.092229	0.620919	0.659800
O73	O	0.207593	0.449230	0.460958
O74	O	0.290403	0.550326	0.627097
O75	O	0.292543	0.382502	0.459059
O76	O	0.208366	0.617451	0.625420
O77	O	0.324356	0.452053	0.494331
O78	O	0.240379	0.547138	0.659959
O79	O	0.176280	0.378386	0.493693
O80	O	0.258895	0.620919	0.659800
S33	S	0.063578	0.324991	0.466440
S34	S	0.317667	0.678809	0.630970
S35	S	0.102009	0.506509	0.470328
S36	S	0.183409	0.493422	0.636908
S37	S	0.022768	0.342303	0.573010
S38	S	0.274094	0.655910	0.403276
S39	S	0.143887	0.489644	0.571774
S40	S	0.018115	0.495224	0.638711
C241	C	0.096071	0.656683	0.840661
C242	C	0.012793	0.343702	0.674103
C243	C	0.130211	0.337257	0.848831
C244	C	0.046748	0.662581	0.682049
C245	C	0.150638	0.656734	0.883457
C246	C	0.067507	0.342784	0.716631
C247	C	0.069394	0.509901	0.842128
C248	C	0.152848	0.490470	0.675968
C249	C	0.081712	0.537777	0.868812
C250	C	0.165606	0.462892	0.702872
C251	C	0.083159	0.629735	0.867734
C252	C	0.000356	0.370744	0.701416
C253	C	0.135992	0.629794	0.909184
C254	C	0.053312	0.369849	0.742604
C255	C	0.029621	0.536328	0.909117
C256	C	0.113630	0.463878	0.743131
C257	C	0.015642	0.508360	0.883771
C258	C	0.099219	0.491570	0.717585
C259	C	0.036055	0.494757	0.850039
C260	C	0.119277	0.505219	0.683546
C261	C	0.144437	0.366440	0.822207
C262	C	0.060506	0.633240	0.988557
C263	C	0.022459	0.464825	0.823559
C264	C	0.105348	0.534724	0.989702
C265	C	0.262737	0.656683	0.840661
C266	C	0.179460	0.343702	0.674103
C267	C	0.296878	0.337257	0.848831
C268	C	0.213415	0.662581	0.682049
C269	C	0.317305	0.656734	0.883457
C270	C	0.234173	0.342784	0.716631
C271	C	0.236061	0.509901	0.842128
C272	C	0.319515	0.490470	0.675968
C273	C	0.248379	0.537777	0.868812
C274	C	0.332273	0.462892	0.702872
C275	C	0.249825	0.629735	0.867734
C276	C	0.167023	0.370744	0.701416
C277	C	0.302659	0.629794	0.909184
C278	C	0.219978	0.369849	0.742604
C279	C	0.196287	0.536328	0.909117
C280	C	0.280297	0.463878	0.743131
C281	C	0.182308	0.508360	0.883771
C282	C	0.265886	0.491570	0.717585
C283	C	0.202721	0.494757	0.850039
C284	C	0.285944	0.505219	0.683546
C285	C	0.311103	0.366440	0.822207
C286	C	0.227172	0.633240	0.988557
C287	C	0.189126	0.464825	0.823559
C288	C	0.272014	0.534724	0.989702
H161	H	0.162179	0.334231	0.981166
H162	H	0.094113	0.666222	0.724201
H163	H	0.107547	0.550169	0.864212
H164	H	0.024989	0.450950	0.698343
H165	H	0.056718	0.618374	0.862853
H166	H	0.140774	0.382577	0.696629
H167	H	0.151123	0.618391	0.936254
H168	H	0.068746	0.381034	0.769599
H169	H	0.014576	0.547648	0.935536
H170	H	0.098793	0.452509	0.769684
H171	H	0.072984	0.501734	0.725088
H172	H	0.245708	0.666525	0.814371
H173	H	0.177354	0.666268	0.891173
H174	H	0.252900	0.500298	0.816427
H175	H	0.274214	0.550169	0.864212
H176	H	0.191656	0.450950	0.698343
H177	H	0.223385	0.618374	0.862853
H178	H	0.307441	0.382577	0.696629
H179	H	0.317790	0.618391	0.936254
H180	H	0.235413	0.381034	0.769599
H181	H	0.181243	0.547648	0.935536
H182	H	0.265459	0.452509	0.769684
H183	H	0.322891	0.497744	0.891167
H184	H	0.239651	0.501734	0.725088
H185	H	0.039040	0.349541	0.818478
H186	H	0.273336	0.632493	1.019210
H187	H	0.125280	0.480618	0.822300
H188	H	0.220885	0.528668	0.996159
H189	H	0.015993	0.375259	0.888714
H190	H	0.257283	0.625798	0.750350
H191	H	0.151762	0.455976	0.891502
H192	H	0.053759	0.528371	0.995249
N41	N	0.102812	0.617084	0.901609
N42	N	0.020243	0.382952	0.735351
N43	N	0.062181	0.550103	0.901946
N44	N	0.146270	0.450309	0.736014
N45	N	0.269479	0.617084	0.901609
N46	N	0.186910	0.382952	0.735351
N47	N	0.228848	0.550103	0.901946
N48	N	0.312937	0.450309	0.736014
Ni21	Ni	0.082334	0.583829	0.945442
Ni22	Ni	0.166657	0.416000	0.779726
Ni23	Ni	0.249001	0.583829	0.945442
Ni24	Ni	0.333324	0.416000	0.779726
O81	O	0.040926	0.449230	0.794291
O82	O	0.123736	0.550326	0.960431
O83	O	0.125877	0.382502	0.792393
O84	O	0.041699	0.617451	0.958754
O85	O	0.157690	0.452053	0.827665
O86	O	0.073712	0.547138	0.993292
O87	O	0.009613	0.378386	0.827026
O88	O	0.092229	0.620919	0.993133
O89	O	0.207593	0.449230	0.794291
O90	O	0.290403	0.550326	0.960431
O91	O	0.292543	0.382502	0.792393
O92	O	0.208366	0.617451	0.958754
O93	O	0.324356	0.452053	0.827665
O94	O	0.240379	0.547138	0.993292
O95	O	0.176280	0.378386	0.827026
O96	O	0.258895	0.620919	0.993133
S41	S	0.063578	0.324991	0.799773
S42	S	0.317667	0.678809	0.964303
S43	S	0.102009	0.506509	0.803661
S44	S	0.183409	0.493422	0.970241
S45	S	0.022768	0.342303	0.906344
S46	S	0.274094	0.655910	0.736609
S47	S	0.143887	0.489644	0.905108
S48	S	0.018115	0.495224	0.972044
C289	C	0.096071	0.990017	0.173995
C290	C	0.012793	0.677035	0.007436
C291	C	0.130211	0.670590	0.182164
C292	C	0.046748	0.995915	0.015382
C293	C	0.150638	0.990067	0.216790
C294	C	0.067507	0.676118	0.049964
C295	C	0.069394	0.843235	0.175461
C296	C	0.152848	0.823803	0.009301
C297	C	0.081712	0.871110	0.202145
C298	C	0.165606	0.796226	0.036206
C299	C	0.083159	0.963069	0.201068
C300	C	0.000356	0.704077	0.034749
C301	C	0.135992	0.963128	0.242517
C302	C	0.053312	0.703182	0.075937
C303	C	0.029621	0.869661	0.242451
C304	C	0.113630	0.797211	0.076465
C305	C	0.015642	0.841693	0.217104
C306	C	0.099219	0.824904	0.050918
C307	C	0.036055	0.828090	0.183372
C308	C	0.119277	0.838552	0.016879
C309	C	0.144437	0.699773	0.155540
C310	C	0.060506	0.966573	0.321891
C311	C	0.022459	0.798158	0.156892
C312	C	0.105348	0.868057	0.323036
C313	C	0.262737	0.990017	0.173995
C314	C	0.179460	0.677035	0.007436
C315	C	0.296878	0.670590	0.182164
C316	C	0.213415	0.995915	0.015382
C317	C	0.317305	0.990067	0.216790
C318	C	0.234173	0.676118	0.049964
C319	C	0.236061	0.843235	0.175461
C320	C	0.319515	0.823803	0.009301
C321	C	0.248379	0.871110	0.202145
C322	C	0.332273	0.796226	0.036206
C323	C	0.249825	0.963069	0.201068
C324	C	0.167023	0.704077	0.034749
C325	C	0.302659	0.963128	0.242517
C326	C	0.219978	0.703182	0.075937
C327	C	0.196287	0.869661	0.242451
C328	C	0.280297	0.797211	0.076465
C329	C	0.182308	0.841693	0.217104
C330	C	0.265886	0.824904	0.050918
C331	C	0.202721	0.828090	0.183372
C332	C	0.285944	0.838552	0.016879
C333	C	0.311103	0.699773	0.155540
C334	C	0.227172	0.966573	0.321891
C335	C	0.189126	0.798158	0.156892
C336	C	0.272014	0.868057	0.323036
H193	H	0.162179	0.667564	0.314500
H194	H	0.094113	0.999555	0.057534
H195	H	0.107547	0.883502	0.197545
H196	H	0.024989	0.784284	0.031676
H197	H	0.056718	0.951708	0.196187
H198	H	0.140774	0.715911	0.029962
H199	H	0.151123	0.951724	0.269587
H200	H	0.068746	0.714368	0.102932
H201	H	0.014576	0.880981	0.268869
H202	H	0.098793	0.785842	0.103017
H203	H	0.072984	0.835067	0.058421
H204	H	0.245708	0.999858	0.147704
H205	H	0.177354	0.999602	0.224507
H206	H	0.252900	0.833632	0.149761
H207	H	0.274214	0.883502	0.197545
H208	H	0.191656	0.784284	0.031676
H209	H	0.223385	0.951708	0.196187
H210	H	0.307441	0.715911	0.029962
H211	H	0.317790	0.951724	0.269587
H212	H	0.235413	0.714368	0.102932
H213	H	0.181243	0.880981	0.268869
H214	H	0.265459	0.785842	0.103017
H215	H	0.322891	0.831077	0.224501
H216	H	0.239651	0.835067	0.058421
H217	H	0.039040	0.682874	0.151811
H218	H	0.273336	0.965827	0.352543
H219	H	0.125280	0.813952	0.155634
H220	H	0.220885	0.862002	0.329492
H221	H	0.015993	0.708592	0.222047
H222	H	0.257283	0.959131	0.083683
H223	H	0.151762	0.789309	0.224836
H224	H	0.053759	0.861705	0.328582
N49	N	0.102812	0.950418	0.234943
N50	N	0.020243	0.716286	0.068684
N51	N	0.062181	0.883437	0.235279
N52	N	0.146270	0.783643	0.069347
N53	N	0.269479	0.950418	0.234943
N54	N	0.186910	0.716286	0.068684
N55	N	0.228848	0.883437	0.235279
N56	N	0.312937	0.783643	0.069347
Ni25	Ni	0.082334	0.917162	0.278775
Ni26	Ni	0.166657	0.749333	0.113059
Ni27	Ni	0.249001	0.917162	0.278775
Ni28	Ni	0.333324	0.749333	0.113059
O97	O	0.040926	0.782563	0.127624
O98	O	0.123736	0.883659	0.293764
O99	O	0.125877	0.715836	0.125726
O100	O	0.041699	0.950784	0.292087
O101	O	0.157690	0.785387	0.160998
O102	O	0.073712	0.880472	0.326626
O103	O	0.009613	0.711719	0.160359
O104	O	0.092229	0.954253	0.326466
O105	O	0.207593	0.782563	0.127624
O106	O	0.290403	0.883659	0.293764
O107	O	0.292543	0.715836	0.125726
O108	O	0.208366	0.950784	0.292087
O109	O	0.324356	0.785387	0.160998
O110	O	0.240379	0.880472	0.326626
O111	O	0.176280	0.711719	0.160359
O112	O	0.258895	0.954253	0.326466
S49	S	0.063578	0.658324	0.133106
S50	S	0.317667	1.012142	0.297637
S51	S	0.102009	0.839843	0.136995
S52	S	0.183409	0.826755	0.303575
S53	S	0.022768	0.675636	0.239677
S54	S	0.274094	0.989243	0.069942
S55	S	0.143887	0.822978	0.238441
S56	S	0.018115	0.828558	0.305378
C337	C	0.096071	0.990017	0.507328
C338	C	0.012793	0.677035	0.340769
C339	C	0.130211	0.670590	0.515497
C340	C	0.046748	0.995915	0.348715
C341	C	0.150638	0.990067	0.550124
C342	C	0.067507	0.676118	0.383298
C343	C	0.069394	0.843235	0.508795
C344	C	0.152848	0.823803	0.342635
C345	C	0.081712	0.871110	0.535478
C346	C	0.165606	0.796226	0.369539
C347	C	0.083159	0.963069	0.534401
C348	C	0.000356	0.704077	0.368082
C349	C	0.135992	0.963128	0.575851
C350	C	0.053312	0.703182	0.409271
C351	C	0.029621	0.869661	0.575784
C352	C	0.113630	0.797211	0.409798
C353	C	0.015642	0.841693	0.550437
C354	C	0.099219	0.824904	0.384251
C355	C	0.036055	0.828090	0.516705
C356	C	0.119277	0.838552	0.350213
C357	C	0.144437	0.699773	0.488874
C358	C	0.060506	0.966573	0.655224
C359	C	0.022459	0.798158	0.490225
C360	C	0.105348	0.868057	0.656369
C361	C	0.262737	0.990017	0.507328
C362	C	0.179460	0.677035	0.340769
C363	C	0.296878	0.670590	0.515497
C364	C	0.213415	0.995915	0.348715
C365	C	0.317305	0.990067	0.550124
C366	C	0.234173	0.676118	0.383298
C367	C	0.236061	0.843235	0.508795
C368	C	0.319515	0.823803	0.342635
C369	C	0.248379	0.871110	0.535478
C370	C	0.332273	0.796226	0.369539
C371	C	0.249825	0.963069	0.534401
C372	C	0.167023	0.704077	0.368082
C373	C	0.302659	0.963128	0.575851
C374	C	0.219978	0.703182	0.409271
C375	C	0.196287	0.869661	0.575784
C376	C	0.280297	0.797211	0.409798
C377	C	0.182308	0.841693	0.550437
C378	C	0.265886	0.824904	0.384251
C379	C	0.202721	0.828090	0.516705
C380	C	0.285944	0.838552	0.350213
C381	C	0.311103	0.699773	0.488874
C382	C	0.227172	0.966573	0.655224
C383	C	0.189126	0.798158	0.490225
C384	C	0.272014	0.868057	0.656369
H225	H	0.162179	0.667564	0.647833
H226	H	0.094113	0.999555	0.390867
H227	H	0.107547	0.883502	0.530878
H228	H	0.024989	0.784284	0.365009
H229	H	0.056718	0.951708	0.529520
H230	H	0.140774	0.715911	0.363295
H231	H	0.151123	0.951724	0.602920
H232	H	0.068746	0.714368	0.436266
H233	H	0.014576	0.880981	0.602203
H234	H	0.098793	0.785842	0.436350
H235	H	0.072984	0.835067	0.391755
H236	H	0.245708	0.999858	0.481038
H237	H	0.177354	0.999602	0.557840
H238	H	0.252900	0.833632	0.483094
H239	H	0.274214	0.883502	0.530878
H240	H	0.191656	0.784284	0.365009
H241	H	0.223385	0.951708	0.529520
H242	H	0.307441	0.715911	0.363295
H243	H	0.317790	0.951724	0.602920
H244	H	0.235413	0.714368	0.436266
H245	H	0.181243	0.880981	0.602203
H246	H	0.265459	0.785842	0.436350
H247	H	0.322891	0.831077	0.557834
H248	H	0.239651	0.835067	0.391755
H249	H	0.039040	0.682874	0.485145
H250	H	0.273336	0.965827	0.685877
H251	H	0.125280	0.813952	0.488967
H252	H	0.220885	0.862002	0.662826
H253	H	0.015993	0.708592	0.555380
H254	H	0.257283	0.959131	0.417017
H255	H	0.151762	0.789309	0.558169
H256	H	0.053759	0.861705	0.661915
N57	N	0.102812	0.950418	0.568276
N58	N	0.020243	0.716286	0.402017
N59	N	0.062181	0.883437	0.568613
N60	N	0.146270	0.783643	0.402680
N61	N	0.269479	0.950418	0.568276
N62	N	0.186910	0.716286	0.402017
N63	N	0.228848	0.883437	0.568613
N64	N	0.312937	0.783643	0.402680
Ni29	Ni	0.082334	0.917162	0.612109
Ni30	Ni	0.166657	0.749333	0.446393
Ni31	Ni	0.249001	0.917162	0.612109
Ni32	Ni	0.333324	0.749333	0.446393
O113	O	0.040926	0.782563	0.460958
O114	O	0.123736	0.883659	0.627097
O115	O	0.125877	0.715836	0.459059
O116	O	0.041699	0.950784	0.625420
O117	O	0.157690	0.785387	0.494331
O118	O	0.073712	0.880472	0.659959
O119	O	0.009613	0.711719	0.493693
O120	O	0.092229	0.954253	0.659800
O121	O	0.207593	0.782563	0.460958
O122	O	0.290403	0.883659	0.627097
O123	O	0.292543	0.715836	0.459059
O124	O	0.208366	0.950784	0.625420
O125	O	0.324356	0.785387	0.494331
O126	O	0.240379	0.880472	0.659959
O127	O	0.176280	0.711719	0.493693
O128	O	0.258895	0.954253	0.659800
S57	S	0.063578	0.658324	0.466440
S58	S	0.317667	1.012142	0.630970
S59	S	0.102009	0.839843	0.470328
S60	S	0.183409	0.826755	0.636908
S61	S	0.022768	0.675636	0.573010
S62	S	0.274094	0.989243	0.403276
S63	S	0.143887	0.822978	0.571774
S64	S	0.018115	0.828558	0.638711
C385	C	0.096071	0.990017	0.840661
C386	C	0.012793	0.677035	0.674103
C387	C	0.130211	0.670590	0.848831
C388	C	0.046748	0.995915	0.682049
C389	C	0.150638	0.990067	0.883457
C390	C	0.067507	0.676118	0.716631
C391	C	0.069394	0.843235	0.842128
C392	C	0.152848	0.823803	0.675968
C393	C	0.081712	0.871110	0.868812
C394	C	0.165606	0.796226	0.702872
C395	C	0.083159	0.963069	0.867734
C396	C	0.000356	0.704077	0.701416
C397	C	0.135992	0.963128	0.909184
C398	C	0.053312	0.703182	0.742604
C399	C	0.029621	0.869661	0.909117
C400	C	0.113630	0.797211	0.743131
C401	C	0.015642	0.841693	0.883771
C402	C	0.099219	0.824904	0.717585
C403	C	0.036055	0.828090	0.850039
C404	C	0.119277	0.838552	0.683546
C405	C	0.144437	0.699773	0.822207
C406	C	0.060506	0.966573	0.988557
C407	C	0.022459	0.798158	0.823559
C408	C	0.105348	0.868057	0.989702
C409	C	0.262737	0.990017	0.840661
C410	C	0.179460	0.677035	0.674103
C411	C	0.296878	0.670590	0.848831
C412	C	0.213415	0.995915	0.682049
C413	C	0.317305	0.990067	0.883457
C414	C	0.234173	0.676118	0.716631
C415	C	0.236061	0.843235	0.842128
C416	C	0.319515	0.823803	0.675968
C417	C	0.248379	0.871110	0.868812
C418	C	0.332273	0.796226	0.702872
C419	C	0.249825	0.963069	0.867734
C420	C	0.167023	0.704077	0.701416
C421	C	0.302659	0.963128	0.909184
C422	C	0.219978	0.703182	0.742604
C423	C	0.196287	0.869661	0.909117
C424	C	0.280297	0.797211	0.743131
C425	C	0.182308	0.841693	0.883771
C426	C	0.265886	0.824904	0.717585
C427	C	0.202721	0.828090	0.850039
C428	C	0.285944	0.838552	0.683546
C429	C	0.311103	0.699773	0.822207
C430	C	0.227172	0.966573	0.988557
C431	C	0.189126	0.798158	0.823559
C432	C	0.272014	0.868057	0.989702
H257	H	0.162179	0.667564	0.981166
H258	H	0.094113	0.999555	0.724201
H259	H	0.107547	0.883502	0.864212
H260	H	0.024989	0.784284	0.698343
H261	H	0.056718	0.951708	0.862853
H262	H	0.140774	0.715911	0.696629
H263	H	0.151123	0.951724	0.936254
H264	H	0.068746	0.714368	0.769599
H265	H	0.014576	0.880981	0.935536
H266	H	0.098793	0.785842	0.769684
H267	H	0.072984	0.835067	0.725088
H268	H	0.245708	0.999858	0.814371
H269	H	0.177354	0.999602	0.891173
H270	H	0.252900	0.833632	0.816427
H271	H	0.274214	0.883502	0.864212
H272	H	0.191656	0.784284	0.698343
H273	H	0.223385	0.951708	0.862853
H274	H	0.307441	0.715911	0.696629
H275	H	0.317790	0.951724	0.936254
H276	H	0.235413	0.714368	0.769599
H277	H	0.181243	0.880981	0.935536
H278	H	0.265459	0.785842	0.769684
H279	H	0.322891	0.831077	0.891167
H280	H	0.239651	0.835067	0.725088
H281	H	0.039040	0.682874	0.818478
H282	H	0.273336	0.965827	1.019210
H283	H	0.125280	0.813952	0.822300
H284	H	0.220885	0.862002	0.996159
H285	H	0.015993	0.708592	0.888714
H286	H	0.257283	0.959131	0.750350
H287	H	0.151762	0.789309	0.891502
H288	H	0.053759	0.861705	0.995249
N65	N	0.102812	0.950418	0.901609
N66	N	0.020243	0.716286	0.735351
N67	N	0.062181	0.883437	0.901946
N68	N	0.146270	0.783643	0.736014
N69	N	0.269479	0.950418	0.901609
N70	N	0.186910	0.716286	0.735351
N71	N	0.228848	0.883437	0.901946
N72	N	0.312937	0.783643	0.736014
Ni33	Ni	0.082334	0.917162	0.945442
Ni34	Ni	0.166657	0.749333	0.779726
Ni35	Ni	0.249001	0.917162	0.945442
Ni36	Ni	0.333324	0.749333	0.779726
O129	O	0.040926	0.782563	0.794291
O130	O	0.123736	0.883659	0.960431
O131	O	0.125877	0.715836	0.792393
O132	O	0.041699	0.950784	0.958754
O133	O	0.157690	0.785387	0.827665
O134	O	0.073712	0.880472	0.993292
O135	O	0.009613	0.711719	0.827026
O136	O	0.092229	0.954253	0.993133
O137	O	0.207593	0.782563	0.794291
O138	O	0.290403	0.883659	0.960431
O139	O	0.292543	0.715836	0.792393
O140	O	0.208366	0.950784	0.958754
O141	O	0.324356	0.785387	0.827665
O142	O	0.240379	0.880472	0.993292
O143	O	0.176280	0.711719	0.827026
O144	O	0.258895	0.954253	0.993133
S65	S	0.063578	0.658324	0.799773
S66	S	0.317667	1.012142	0.964303
S67	S	0.102009	0.839843	0.803661
S68	S	0.183409	0.826755	0.970241
S69	S	0.022768	0.675636	0.906344
S70	S	0.274094	0.989243	0.736609
S71	S	0.143887	0.822978	0.905108
S72	S	0.018115	0.828558	0.972044
C433	C	0.429404	0.323350	0.173995
C434	C	0.346126	0.010369	0.007436
C435	C	0.463545	0.003923	0.182164
C436	C	0.380081	0.329248	0.015382
C437	C	0.483972	0.323401	0.216790
C438	C	0.400840	0.009451	0.049964
C439	C	0.402727	0.176568	0.175461
C440	C	0.486182	0.157136	0.009301
C441	C	0.415046	0.204444	0.202145
C442	C	0.498940	0.129559	0.036206
C443	C	0.416492	0.296402	0.201068
C444	C	0.333690	0.037411	0.034749
C445	C	0.469326	0.296461	0.242517
C446	C	0.386645	0.036516	0.075937
C447	C	0.362954	0.202994	0.242451
C448	C	0.446963	0.130544	0.076465
C449	C	0.348975	0.175026	0.217104
C450	C	0.432553	0.158237	0.050918
C451	C	0.369388	0.161423	0.183372
C452	C	0.452611	0.171885	0.016879
C453	C	0.477770	0.033106	0.155540
C454	C	0.393839	0.299907	0.321891
C455	C	0.355793	0.131491	0.156892
C456	C	0.438681	0.201391	0.323036
C457	C	0.596071	0.323350	0.173995
C458	C	0.512793	0.010369	0.007436
C459	C	0.630211	0.003923	0.182164
C460	C	0.546748	0.329248	0.015382
C461	C	0.650638	0.323401	0.216790
C462	C	0.567507	0.009451	0.049964
C463	C	0.569394	0.176568	0.175461
C464	C	0.652849	0.157136	0.009301
C465	C	0.581712	0.204444	0.202145
C466	C	0.665606	0.129559	0.036206
C467	C	0.583159	0.296402	0.201068
C468	C	0.500356	0.037411	0.034749
C469	C	0.635992	0.296461	0.242517
C470	C	0.553311	0.036516	0.075937
C471	C	0.529621	0.202994	0.242451
C472	C	0.613630	0.130544	0.076465
C473	C	0.515642	0.175026	0.217104
C474	C	0.599219	0.158237	0.050918
C475	C	0.536055	0.161423	0.183372
C476	C	0.619277	0.171885	0.016879
C477	C	0.644437	0.033106	0.155540
C478	C	0.560506	0.299907	0.321891
C479	C	0.522459	0.131491	0.156892
C480	C	0.605348	0.201391	0.323036
H289	H	0.495513	0.000897	0.314500
H290	H	0.427447	0.332888	0.057534
H291	H	0.440880	0.216835	0.197545
H292	H	0.358323	0.117617	0.031676
H293	H	0.390051	0.285041	0.196187
H294	H	0.474107	0.049244	0.029962
H295	H	0.484457	0.285058	0.269587
H296	H	0.402080	0.047701	0.102932
H297	H	0.347910	0.214315	0.268869
H298	H	0.432126	0.119175	0.103017
H299	H	0.406317	0.168400	0.058421
H300	H	0.579041	0.333192	0.147704
H301	H	0.510687	0.332935	0.224507
H302	H	0.586233	0.166965	0.149761
H303	H	0.607547	0.216835	0.197545
H304	H	0.524989	0.117617	0.031676
H305	H	0.556718	0.285041	0.196187
H306	H	0.640774	0.049244	0.029962
H307	H	0.651123	0.285058	0.269587
H308	H	0.568747	0.047701	0.102932
H309	H	0.514576	0.214315	0.268869
H310	H	0.598793	0.119175	0.103017
H311	H	0.656224	0.164410	0.224501
H312	H	0.572984	0.168400	0.058421
H313	H	0.372373	0.016207	0.151811
H314	H	0.606669	0.299160	0.352543
H315	H	0.458613	0.147285	0.155634
H316	H	0.554219	0.195335	0.329492
H317	H	0.349327	0.041926	0.222047
H318	H	0.590616	0.292465	0.083683
H319	H	0.485095	0.122643	0.224836
H320	H	0.387093	0.195038	0.328582
N73	N	0.436146	0.283751	0.234943
N74	N	0.353576	0.049619	0.068684
N75	N	0.395514	0.216770	0.235279
N76	N	0.479603	0.116976	0.069347
N77	N	0.602812	0.283751	0.234943
N78	N	0.520243	0.049619	0.068684
N79	N	0.562181	0.216770	0.235279
N80	N	0.646270	0.116976	0.069347
Ni37	Ni	0.415667	0.250495	0.278775
Ni38	Ni	0.499991	0.082666	0.113059
Ni39	Ni	0.582334	0.250495	0.278775
Ni40	Ni	0.666657	0.082666	0.113059
O145	O	0.374259	0.115896	0.127624
O146	O	0.457069	0.216992	0.293764
O147	O	0.459210	0.049169	0.125726
O148	O	0.375033	0.284117	0.292087
O149	O	0.491023	0.118720	0.160998
O150	O	0.407046	0.213805	0.326626
O151	O	0.342947	0.045053	0.160359
O152	O	0.425562	0.287586	0.326466
O153	O	0.540926	0.115896	0.127624
O154	O	0.623736	0.216992	0.293764
O155	O	0.625877	0.049169	0.125726
O156	O	0.541699	0.284117	0.292087
O157	O	0.657690	0.118720	0.160998
O158	O	0.573712	0.213805	0.326626
O159	O	0.509613	0.045053	0.160359
O160	O	0.592229	0.287586	0.326466
S73	S	0.396912	-0.008343	0.133106
S74	S	0.651001	0.345476	0.297637
S75	S	0.435343	0.173176	0.136995
S76	S	0.516743	0.160088	0.303575
S77	S	0.356102	0.008970	0.239677
S78	S	0.607427	0.322577	0.069942
S79	S	0.477220	0.156311	0.238441
S80	S	0.351448	0.161891	0.305378
C481	C	0.429404	0.323350	0.507328
C482	C	0.346126	0.010369	0.340769
C483	C	0.463545	0.003923	0.515497
C484	C	0.380081	0.329248	0.348715
C485	C	0.483972	0.323401	0.550124
C486	C	0.400840	0.009451	0.383298
C487	C	0.402727	0.176568	0.508795
C488	C	0.486182	0.157136	0.342635
C489	C	0.415046	0.204444	0.535478
C490	C	0.498940	0.129559	0.369539
C491	C	0.416492	0.296402	0.534401
C492	C	0.333690	0.037411	0.368082
C493	C	0.469326	0.296461	0.575851
C494	C	0.386645	0.036516	0.409271
C495	C	0.362954	0.202994	0.575784
C496	C	0.446963	0.130544	0.409798
C497	C	0.348975	0.175026	0.550437
C498	C	0.432553	0.158237	0.384251
C499	C	0.369388	0.161423	0.516705
C500	C	0.452611	0.171885	0.350213
C501	C	0.477770	0.033106	0.488874
C502	C	0.393839	0.299907	0.655224
C503	C	0.355793	0.131491	0.490225
C504	C	0.438681	0.201391	0.656369
C505	C	0.596071	0.323350	0.507328
C506	C	0.512793	0.010369	0.340769
C507	C	0.630211	0.003923	0.515497
C508	C	0.546748	0.329248	0.348715
C509	C	0.650638	0.323401	0.550124
C510	C	0.567507	0.009451	0.383298
C511	C	0.569394	0.176568	0.508795
C512	C	0.652849	0.157136	0.342635
C513	C	0.581712	0.204444	0.535478
C514	C	0.665606	0.129559	0.369539
C515	C	0.583159	0.296402	0.534401
C516	C	0.500356	0.037411	0.368082
C517	C	0.635992	0.296461	0.575851
C518	C	0.553311	0.036516	0.409271
C519	C	0.529621	0.202994	0.575784
C520	C	0.613630	0.130544	0.409798
C521	C	0.515642	0.175026	0.550437
C522	C	0.599219	0.158237	0.384251
C523	C	0.536055	0.161423	0.516705
C524	C	0.619277	0.171885	0.350213
C525	C	0.644437	0.033106	0.488874
C526	C	0.560506	0.299907	0.655224
C527	C	0.522459	0.131491	0.490225
C528	C	0.605348	0.201391	0.656369
H321	H	0.495513	0.000897	0.647833
H322	H	0.427447	0.332888	0.390867
H323	H	0.440880	0.216835	0.530878
H324	H	0.358323	0.117617	0.365009
H325	H	0.390051	0.285041	0.529520
H326	H	0.474107	0.049244	0.363295
H327	H	0.484457	0.285058	0.602920
H328	H	0.402080	0.047701	0.436266
H329	H	0.347910	0.214315	0.602203
H330	H	0.432126	0.119175	0.436350
H331	H	0.406317	0.168400	0.391755
H332	H	0.579041	0.333192	0.481038
H333	H	0.510687	0.332935	0.557840
H334	H	0.586233	0.166965	0.483094
H335	H	0.607547	0.216835	0.530878
H336	H	0.524989	0.117617	0.365009
H337	H	0.556718	0.285041	0.529520
H338	H	0.640774	0.049244	0.363295
H339	H	0.651123	0.285058	0.602920
H340	H	0.568747	0.047701	0.436266
H341	H	0.514576	0.214315	0.602203
H342	H	0.598793	0.119175	0.436350
H343	H	0.656224	0.164410	0.557834
H344	H	0.572984	0.168400	0.391755
H345	H	0.372373	0.016207	0.485145
H346	H	0.606669	0.299160	0.685877
H347	H	0.458613	0.147285	0.488967
H348	H	0.554219	0.195335	0.662826
H349	H	0.349327	0.041926	0.555380
H350	H	0.590616	0.292465	0.417017
H351	H	0.485095	0.122643	0.558169
H352	H	0.387093	0.195038	0.661915
N81	N	0.436146	0.283751	0.568276
N82	N	0.353576	0.049619	0.402017
N83	N	0.395514	0.216770	0.568613
N84	N	0.479603	0.116976	0.402680
N85	N	0.602812	0.283751	0.568276
N86	N	0.520243	0.049619	0.402017
N87	N	0.562181	0.216770	0.568613
N88	N	0.646270	0.116976	0.402680
Ni41	Ni	0.415667	0.250495	0.612109
Ni42	Ni	0.499991	0.082666	0.446393
Ni43	Ni	0.582334	0.250495	0.612109
Ni44	Ni	0.666657	0.082666	0.446393
O161	O	0.374259	0.115896	0.460958
O162	O	0.457069	0.216992	0.627097
O163	O	0.459210	0.049169	0.459059
O164	O	0.375033	0.284117	0.625420
O165	O	0.491023	0.118720	0.494331
O166	O	0.407046	0.213805	0.659959
O167	O	0.342947	0.045053	0.493693
O168	O	0.425562	0.287586	0.659800
O169	O	0.540926	0.115896	0.460958
O170	O	0.623736	0.216992	0.627097
O171	O	0.625877	0.049169	0.459059
O172	O	0.541699	0.284117	0.625420
O173	O	0.657690	0.118720	0.494331
O174	O	0.573712	0.213805	0.659959
O175	O	0.509613	0.045053	0.493693
O176	O	0.592229	0.287586	0.659800
S81	S	0.396912	-0.008343	0.466440
S82	S	0.651001	0.345476	0.630970
S83	S	0.435343	0.173176	0.470328
S84	S	0.516743	0.160088	0.636908
S85	S	0.356102	0.008970	0.573010
S86	S	0.607427	0.322577	0.403276
S87	S	0.477220	0.156311	0.571774
S88	S	0.351448	0.161891	0.638711
C529	C	0.429404	0.323350	0.840661
C530	C	0.346126	0.010369	0.674103
C531	C	0.463545	0.003923	0.848831
C532	C	0.380081	0.329248	0.682049
C533	C	0.483972	0.323401	0.883457
C534	C	0.400840	0.009451	0.716631
C535	C	0.402727	0.176568	0.842128
C536	C	0.486182	0.157136	0.675968
C537	C	0.415046	0.204444	0.868812
C538	C	0.498940	0.129559	0.702872
C539	C	0.416492	0.296402	0.867734
C540	C	0.333690	0.037411	0.701416
C541	C	0.469326	0.296461	0.909184
C542	C	0.386645	0.036516	0.742604
C543	C	0.362954	0.202994	0.909117
C544	C	0.446963	0.130544	0.743131
C545	C	0.348975	0.175026	0.883771
C546	C	0.432553	0.158237	0.717585
C547	C	0.369388	0.161423	0.850039
C548	C	0.452611	0.171885	0.683546
C549	C	0.477770	0.033106	0.822207
C550	C	0.393839	0.299907	0.988557
C551	C	0.355793	0.131491	0.823559
C552	C	0.438681	0.201391	0.989702
C553	C	0.596071	0.323350	0.840661
C554	C	0.512793	0.010369	0.674103
C555	C	0.630211	0.003923	0.848831
C556	C	0.546748	0.329248	0.682049
C557	C	0.650638	0.323401	0.883457
C558	C	0.567507	0.009451	0.716631
C559	C	0.569394	0.176568	0.842128
C560	C	0.652849	0.157136	0.675968
C561	C	0.581712	0.204444	0.868812
C562	C	0.665606	0.129559	0.702872
C563	C	0.583159	0.296402	0.867734
C564	C	0.500356	0.037411	0.701416
C565	C	0.635992	0.296461	0.909184
C566	C	0.553311	0.036516	0.742604
C567	C	0.529621	0.202994	0.909117
C568	C	0.613630	0.130544	0.743131
C569	C	0.515642	0.175026	0.883771
C570	C	0.599219	0.158237	0.717585
C571	C	0.536055	0.161423	0.850039
C572	C	0.619277	0.171885	0.683546
C573	C	0.644437	0.033106	0.822207
C574	C	0.560506	0.299907	0.988557
C575	C	0.522459	0.131491	0.823559
C576	C	0.605348	0.201391	0.989702
H353	H	0.495513	0.000897	0.981166
H354	H	0.427447	0.332888	0.724201
H355	H	0.440880	0.216835	0.864212
H356	H	0.358323	0.117617	0.698343
H357	H	0.390051	0.285041	0.862853
H358	H	0.474107	0.049244	0.696629
H359	H	0.484457	0.285058	0.936254
H360	H	0.402080	0.047701	0.769599
H361	H	0.347910	0.214315	0.935536
H362	H	0.432126	0.119175	0.769684
H363	H	0.406317	0.168400	0.725088
H364	H	0.579041	0.333192	0.814371
H365	H	0.510687	0.332935	0.891173
H366	H	0.586233	0.166965	0.816427
H367	H	0.607547	0.216835	0.864212
H368	H	0.524989	0.117617	0.698343
H369	H	0.556718	0.285041	0.862853
H370	H	0.640774	0.049244	0.696629
H371	H	0.651123	0.285058	0.936254
H372	H	0.568747	0.047701	0.769599
H373	H	0.514576	0.214315	0.935536
H374	H	0.598793	0.119175	0.769684
H375	H	0.656224	0.164410	0.891167
H376	H	0.572984	0.168400	0.725088
H377	H	0.372373	0.016207	0.818478
H378	H	0.606669	0.299160	1.019210
H379	H	0.458613	0.147285	0.822300
H380	H	0.554219	0.195335	0.996159
H381	H	0.349327	0.041926	0.888714
H382	H	0.590616	0.292465	0.750350
H383	H	0.485095	0.122643	0.891502
H384	H	0.387093	0.195038	0.995249
N89	N	0.436146	0.283751	0.901609
N90	N	0.353576	0.049619	0.735351
N91	N	0.395514	0.216770	0.901946
N92	N	0.479603	0.116976	0.736014
N93	N	0.602812	0.283751	0.901609
N94	N	0.520243	0.049619	0.735351
N95	N	0.562181	0.216770	0.901946
N96	N	0.646270	0.116976	0.736014
Ni45	Ni	0.415667	0.250495	0.945442
Ni46	Ni	0.499991	0.082666	0.779726
Ni47	Ni	0.582334	0.250495	0.945442
Ni48	Ni	0.666657	0.082666	0.779726
O177	O	0.374259	0.115896	0.794291
O178	O	0.457069	0.216992	0.960431
O179	O	0.459210	0.049169	0.792393
O180	O	0.375033	0.284117	0.958754
O181	O	0.491023	0.118720	0.827665
O182	O	0.407046	0.213805	0.993292
O183	O	0.342947	0.045053	0.827026
O184	O	0.425562	0.287586	0.993133
O185	O	0.540926	0.115896	0.794291
O186	O	0.623736	0.216992	0.960431
O187	O	0.625877	0.049169	0.792393
O188	O	0.541699	0.284117	0.958754
O189	O	0.657690	0.118720	0.827665
O190	O	0.573712	0.213805	0.993292
O191	O	0.509613	0.045053	0.827026
O192	O	0.592229	0.287586	0.993133
S89	S	0.396912	-0.008343	0.799773
S90	S	0.651001	0.345476	0.964303
S91	S	0.435343	0.173176	0.803661
S92	S	0.516743	0.160088	0.970241
S93	S	0.356102	0.008970	0.906344
S94	S	0.607427	0.322577	0.736609
S95	S	0.477220	0.156311	0.905108
S96	S	0.351448	0.161891	0.972044
C577	C	0.429404	0.656683	0.173995
C578	C	0.346126	0.343702	0.007436
C579	C	0.463545	0.337257	0.182164
C580	C	0.380081	0.662581	0.015382
C581	C	0.483972	0.656734	0.216790
C582	C	0.400840	0.342784	0.049964
C583	C	0.402727	0.509901	0.175461
C584	C	0.486182	0.490470	0.009301
C585	C	0.415046	0.537777	0.202145
C586	C	0.498940	0.462892	0.036206
C587	C	0.416492	0.629735	0.201068
C588	C	0.333690	0.370744	0.034749
C589	C	0.469326	0.629794	0.242517
C590	C	0.386645	0.369849	0.075937
C591	C	0.362954	0.536328	0.242451
C592	C	0.446963	0.463878	0.076465
C593	C	0.348975	0.508360	0.217104
C594	C	0.432553	0.491570	0.050918
C595	C	0.369388	0.494757	0.183372
C596	C	0.452611	0.505219	0.016879
C597	C	0.477770	0.366440	0.155540
C598	C	0.393839	0.633240	0.321891
C599	C	0.355793	0.464825	0.156892
C600	C	0.438681	0.534724	0.323036
C601	C	0.596071	0.656683	0.173995
C602	C	0.512793	0.343702	0.007436
C603	C	0.630211	0.337257	0.182164
C604	C	0.546748	0.662581	0.015382
C605	C	0.650638	0.656734	0.216790
C606	C	0.567507	0.342784	0.049964
C607	C	0.569394	0.509901	0.175461
C608	C	0.652849	0.490470	0.009301
C609	C	0.581712	0.537777	0.202145
C610	C	0.665606	0.462892	0.036206
C611	C	0.583159	0.629735	0.201068
C612	C	0.500356	0.370744	0.034749
C613	C	0.635992	0.629794	0.242517
C614	C	0.553311	0.369849	0.075937
C615	C	0.529621	0.536328	0.242451
C616	C	0.613630	0.463878	0.076465
C617	C	0.515642	0.508360	0.217104
C618	C	0.599219	0.491570	0.050918
C619	C	0.536055	0.494757	0.183372
C620	C	0.619277	0.505219	0.016879
C621	C	0.644437	0.366440	0.155540
C622	C	0.560506	0.633240	0.321891
C623	C	0.522459	0.464825	0.156892
C624	C	0.605348	0.534724	0.323036
H385	H	0.495513	0.334231	0.314500
H386	H	0.427447	0.666222	0.057534
H387	H	0.440880	0.550169	0.197545
H388	H	0.358323	0.450950	0.031676
H389	H	0.390051	0.618374	0.196187
H390	H	0.474107	0.382577	0.029962
H391	H	0.484457	0.618391	0.269587
H392	H	0.402080	0.381034	0.102932
H393	H	0.347910	0.547648	0.268869
H394	H	0.432126	0.452509	0.103017
H395	H	0.406317	0.501734	0.058421
H396	H	0.579041	0.666525	0.147704
H397	H	0.510687	0.666268	0.224507
H398	H	0.586233	0.500298	0.149761
H399	H	0.607547	0.550169	0.197545
H400	H	0.524989	0.450950	0.031676
H401	H	0.556718	0.618374	0.196187
H402	H	0.640774	0.382577	0.029962
H403	H	0.651123	0.618391	0.269587
H404	H	0.568747	0.381034	0.102932
H405	H	0.514576	0.547648	0.268869
H406	H	0.598793	0.452509	0.103017
H407	H	0.656224	0.497744	0.224501
H408	H	0.572984	0.501734	0.058421
H409	H	0.372373	0.349541	0.151811
H410	H	0.606669	0.632493	0.352543
H411	H	0.458613	0.480618	0.155634
H412	H	0.554219	0.528668	0.329492
H413	H	0.349327	0.375259	0.222047
H414	H	0.590616	0.625798	0.083683
H415	H	0.485095	0.455976	0.224836
H416	H	0.387093	0.528371	0.328582
N97	N	0.436146	0.617084	0.234943
N98	N	0.353576	0.382952	0.068684
N99	N	0.395514	0.550103	0.235279
N100	N	0.479603	0.450309	0.069347
N101	N	0.602812	0.617084	0.234943
N102	N	0.520243	0.382952	0.068684
N103	N	0.562181	0.550103	0.235279
N104	N	0.646270	0.450309	0.069347
Ni49	Ni	0.415667	0.583829	0.278775
Ni50	Ni	0.499991	0.416000	0.113059
Ni51	Ni	0.582334	0.583829	0.278775
Ni52	Ni	0.666657	0.416000	0.113059
O193	O	0.374259	0.449230	0.127624
O194	O	0.457069	0.550326	0.293764
O195	O	0.459210	0.382502	0.125726
O196	O	0.375033	0.617451	0.292087
O197	O	0.491023	0.452053	0.160998
O198	O	0.407046	0.547138	0.326626
O199	O	0.342947	0.378386	0.160359
O200	O	0.425562	0.620919	0.326466
O201	O	0.540926	0.449230	0.127624
O202	O	0.623736	0.550326	0.293764
O203	O	0.625877	0.382502	0.125726
O204	O	0.541699	0.617451	0.292087
O205	O	0.657690	0.452053	0.160998
O206	O	0.573712	0.547138	0.326626
O207	O	0.509613	0.378386	0.160359
O208	O	0.592229	0.620919	0.326466
S97	S	0.396912	0.324991	0.133106
S98	S	0.651001	0.678809	0.297637
S99	S	0.435343	0.506509	0.136995
S100	S	0.516743	0.493422	0.303575
S101	S	0.356102	0.342303	0.239677
S102	S	0.607427	0.655910	0.069942
S103	S	0.477220	0.489644	0.238441
S104	S	0.351448	0.495224	0.305378
C625	C	0.429404	0.656683	0.507328
C626	C	0.346126	0.343702	0.340769
C627	C	0.463545	0.337257	0.515497
C628	C	0.380081	0.662581	0.348715
C629	C	0.483972	0.656734	0.550124
C630	C	0.400840	0.342784	0.383298
C631	C	0.402727	0.509901	0.508795
C632	C	0.486182	0.490470	0.342635
C633	C	0.415046	0.537777	0.535478
C634	C	0.498940	0.462892	0.369539
C635	C	0.416492	0.629735	0.534401
C636	C	0.333690	0.370744	0.368082
C637	C	0.469326	0.629794	0.575851
C638	C	0.386645	0.369849	0.409271
C639	C	0.362954	0.536328	0.575784
C640	C	0.446963	0.463878	0.409798
C641	C	0.348975	0.508360	0.550437
C642	C	0.432553	0.491570	0.384251
C643	C	0.369388	0.494757	0.516705
C644	C	0.452611	0.505219	0.350213
C645	C	0.477770	0.366440	0.488874
C646	C	0.393839	0.633240	0.655224
C647	C	0.355793	0.464825	0.490225
C648	C	0.438681	0.534724	0.656369
C649	C	0.596071	0.656683	0.507328
C650	C	0.512793	0.343702	0.340769
C651	C	0.630211	0.337257	0.515497
C652	C	0.546748	0.662581	0.348715
C653	C	0.650638	0.656734	0.550124
C654	C	0.567507	0.342784	0.383298
C655	C	0.569394	0.509901	0.508795
C656	C	0.652849	0.490470	0.342635
C657	C	0.581712	0.537777	0.535478
C658	C	0.665606	0.462892	0.369539
C659	C	0.583159	0.629735	0.534401
C660	C	0.500356	0.370744	0.368082
C661	C	0.635992	0.629794	0.575851
C662	C	0.553311	0.369849	0.409271
C663	C	0.529621	0.536328	0.575784
C664	C	0.613630	0.463878	0.409798
C665	C	0.515642	0.508360	0.550437
C666	C	0.599219	0.491570	0.384251
C667	C	0.536055	0.494757	0.516705
C668	C	0.619277	0.505219	0.350213
C669	C	0.644437	0.366440	0.488874
C670	C	0.560506	0.633240	0.655224
C671	C	0.522459	0.464825	0.490225
C672	C	0.605348	0.534724	0.656369
H417	H	0.495513	0.334231	0.647833
H418	H	0.427447	0.666222	0.390867
H419	H	0.440880	0.550169	0.530878
H420	H	0.358323	0.450950	0.365009
H421	H	0.390051	0.618374	0.529520
H422	H	0.474107	0.382577	0.363295
H423	H	0.484457	0.618391	0.602920
H424	H	0.402080	0.381034	0.436266
H425	H	0.347910	0.547648	0.602203
H426	H	0.432126	0.452509	0.436350
H427	H	0.406317	0.501734	0.391755
H428	H	0.579041	0.666525	0.481038
H429	H	0.510687	0.666268	0.557840
H430	H	0.586233	0.500298	0.483094
H431	H	0.607547	0.550169	0.530878
H432	H	0.524989	0.450950	0.365009
H433	H	0.556718	0.618374	0.529520
H434	H	0.640774	0.382577	0.363295
H435	H	0.651123	0.618391	0.602920
H436	H	0.568747	0.381034	0.436266
H437	H	0.514576	0.547648	0.602203
H438	H	0.598793	0.452509	0.436350
H439	H	0.656224	0.497744	0.557834
H440	H	0.572984	0.501734	0.391755
H441	H	0.372373	0.349541	0.485145
H442	H	0.606669	0.632493	0.685877
H443	H	0.458613	0.480618	0.488967
H444	H	0.554219	0.528668	0.662826
H445	H	0.349327	0.375259	0.555380
H446	H	0.590616	0.625798	0.417017
H447	H	0.485095	0.455976	0.558169
H448	H	0.387093	0.528371	0.661915
N105	N	0.436146	0.617084	0.568276
N106	N	0.353576	0.382952	0.402017
N107	N	0.395514	0.550103	0.568613
N108	N	0.479603	0.450309	0.402680
N109	N	0.602812	0.617084	0.568276
N110	N	0.520243	0.382952	0.402017
N111	N	0.562181	0.550103	0.568613
N112	N	0.646270	0.450309	0.402680
Ni53	Ni	0.415667	0.583829	0.612109
Ni54	Ni	0.499991	0.416000	0.446393
Ni55	Ni	0.582334	0.583829	0.612109
Ni56	Ni	0.666657	0.416000	0.446393
O209	O	0.374259	0.449230	0.460958
O210	O	0.457069	0.550326	0.627097
O211	O	0.459210	0.382502	0.459059
O212	O	0.375033	0.617451	0.625420
O213	O	0.491023	0.452053	0.494331
O214	O	0.407046	0.547138	0.659959
O215	O	0.342947	0.378386	0.493693
O216	O	0.425562	0.620919	0.659800
O217	O	0.540926	0.449230	0.460958
O218	O	0.623736	0.550326	0.627097
O219	O	0.625877	0.382502	0.459059
O220	O	0.541699	0.617451	0.625420
O221	O	0.657690	0.452053	0.494331
O222	O	0.573712	0.547138	0.659959
O223	O	0.509613	0.378386	0.493693
O224	O	0.592229	0.620919	0.659800
S105	S	0.396912	0.324991	0.466440
S106	S	0.651001	0.678809	0.630970
S107	S	0.435343	0.506509	0.470328
S108	S	0.516743	0.493422	0.636908
S109	S	0.356102	0.342303	0.573010
S110	S	0.607427	0.655910	0.403276
S111	S	0.477220	0.489644	0.571774
S112	S	0.351448	0.495224	0.638711
C673	C	0.429404	0.656683	0.840661
C674	C	0.346126	0.343702	0.674103
C675	C	0.463545	0.337257	0.848831
C676	C	0.380081	0.662581	0.682049
C677	C	0.483972	0.656734	0.883457
C678	C	0.400840	0.342784	0.716631
C679	C	0.402727	0.509901	0.842128
C680	C	0.486182	0.490470	0.675968
C681	C	0.415046	0.537777	0.868812
C682	C	0.498940	0.462892	0.702872
C683	C	0.416492	0.629735	0.867734
C684	C	0.333690	0.370744	0.701416
C685	C	0.469326	0.629794	0.909184
C686	C	0.386645	0.369849	0.742604
C687	C	0.362954	0.536328	0.909117
C688	C	0.446963	0.463878	0.743131
C689	C	0.348975	0.508360	0.883771
C690	C	0.432553	0.491570	0.717585
C691	C	0.369388	0.494757	0.850039
C692	C	0.452611	0.505219	0.683546
C693	C	0.477770	0.366440	0.822207
C694	C	0.393839	0.633240	0.988557
C695	C	0.355793	0.464825	0.823559
C696	C	0.438681	0.534724	0.989702
C697	C	0.596071	0.656683	0.840661
C698	C	0.512793	0.343702	0.674103
C699	C	0.630211	0.337257	0.848831
C700	C	0.546748	0.662581	0.682049
C701	C	0.650638	0.656734	0.883457
C702	C	0.567507	0.342784	0.716631
C703	C	0.569394	0.509901	0.842128
C704	C	0.652849	0.490470	0.675968
C705	C	0.581712	0.537777	0.868812
C706	C	0.665606	0.462892	0.702872
C707	C	0.583159	0.629735	0.867734
C708	C	0.500356	0.370744	0.701416
C709	C	0.635992	0.629794	0.909184
C710	C	0.553311	0.369849	0.742604
C711	C	0.529621	0.536328	0.909117
C712	C	0.613630	0.463878	0.743131
C713	C	0.515642	0.508360	0.883771
C714	C	0.599219	0.491570	0.717585
C715	C	0.536055	0.494757	0.850039
C716	C	0.619277	0.505219	0.683546
C717	C	0.644437	0.366440	0.822207
C718	C	0.560506	0.633240	0.988557
C719	C	0.522459	0.464825	0.823559
C720	C	0.605348	0.534724	0.989702
H449	H	0.495513	0.334231	0.981166
H450	H	0.427447	0.666222	0.724201
H451	H	0.440880	0.550169	0.864212
H452	H	0.358323	0.450950	0.698343
H453	H	0.390051	0.618374	0.862853
H454	H	0.474107	0.382577	0.696629
H455	H	0.484457	0.618391	0.936254
H456	H	0.402080	0.381034	0.769599
H457	H	0.347910	0.547648	0.935536
H458	H	0.432126	0.452509	0.769684
H459	H	0.406317	0.501734	0.725088
H460	H	0.579041	0.666525	0.814371
H461	H	0.510687	0.666268	0.891173
H462	H	0.586233	0.500298	0.816427
H463	H	0.607547	0.550169	0.864212
H464	H	0.524989	0.450950	0.698343
H465	H	0.556718	0.618374	0.862853
H466	H	0.640774	0.382577	0.696629
H467	H	0.651123	0.618391	0.936254
H468	H	0.568747	0.381034	0.769599
H469	H	0.514576	0.547648	0.935536
H470	H	0.598793	0.452509	0.769684
H471	H	0.656224	0.497744	0.891167
H472	H	0.572984	0.501734	0.725088
H473	H	0.372373	0.349541	0.818478
H474	H	0.606669	0.632493	1.019210
H475	H	0.458613	0.480618	0.822300
H476	H	0.554219	0.528668	0.996159
H477	H	0.349327	0.375259	0.888714
H478	H	0.590616	0.625798	0.750350
H479	H	0.485095	0.455976	0.891502
H480	H	0.387093	0.528371	0.995249
N113	N	0.436146	0.617084	0.901609
N114	N	0.353576	0.382952	0.735351
N115	N	0.395514	0.550103	0.901946
N116	N	0.479603	0.450309	0.736014
N117	N	0.602812	0.617084	0.901609
N118	N	0.520243	0.382952	0.735351
N119	N	0.562181	0.550103	0.901946
N120	N	0.646270	0.450309	0.736014
Ni57	Ni	0.415667	0.583829	0.945442
Ni58	Ni	0.499991	0.416000	0.779726
Ni59	Ni	0.582334	0.583829	0.945442
Ni60	Ni	0.666657	0.416000	0.779726
O225	O	0.374259	0.449230	0.794291
O226	O	0.457069	0.550326	0.960431
O227	O	0.459210	0.382502	0.792393
O228	O	0.375033	0.617451	0.958754
O229	O	0.491023	0.452053	0.827665
O230	O	0.407046	0.547138	0.993292
O231	O	0.342947	0.378386	0.827026
O232	O	0.425562	0.620919	0.993133
O233	O	0.540926	0.449230	0.794291
O234	O	0.623736	0.550326	0.960431
O235	O	0.625877	0.382502	0.792393
O236	O	0.541699	0.617451	0.958754
O237	O	0.657690	0.452053	0.827665
O238	O	0.573712	0.547138	0.993292
O239	O	0.509613	0.378386	0.827026
O240	O	0.592229	0.620919	0.993133
S113	S	0.396912	0.324991	0.799773
S114	S	0.651001	0.678809	0.964303
S115	S	0.435343	0.506509	0.803661
S116	S	0.516743	0.493422	0.970241
S117	S	0.356102	0.342303	0.906344
S118	S	0.607427	0.655910	0.736609
S119	S	0.477220	0.489644	0.905108
S120	S	0.351448	0.495224	0.972044
C721	C	0.429404	0.990017	0.173995
C722	C	0.346126	0.677035	0.007436
C723	C	0.463545	0.670590	0.182164
C724	C	0.380081	0.995915	0.015382
C725	C	0.483972	0.990067	0.216790
C726	C	0.400840	0.676118	0.049964
C727	C	0.402727	0.843235	0.175461
C728	C	0.486182	0.823803	0.009301
C729	C	0.415046	0.871110	0.202145
C730	C	0.498940	0.796226	0.036206
C731	C	0.416492	0.963069	0.201068
C732	C	0.333690	0.704077	0.034749
C733	C	0.469326	0.963128	0.242517
C734	C	0.386645	0.703182	0.075937
C735	C	0.362954	0.869661	0.242451
C736	C	0.446963	0.797211	0.076465
C737	C	0.348975	0.841693	0.217104
C738	C	0.432553	0.824904	0.050918
C739	C	0.369388	0.828090	0.183372
C740	C	0.452611	0.838552	0.016879
C741	C	0.477770	0.699773	0.155540
C742	C	0.393839	0.966573	0.321891
C743	C	0.355793	0.798158	0.156892
C744	C	0.438681	0.868057	0.323036
C745	C	0.596071	0.990017	0.173995
C746	C	0.512793	0.677035	0.007436
C747	C	0.630211	0.670590	0.182164
C748	C	0.546748	0.995915	0.015382
C749	C	0.650638	0.990067	0.216790
C750	C	0.567507	0.676118	0.049964
C751	C	0.569394	0.843235	0.175461
C752	C	0.652849	0.823803	0.009301
C753	C	0.581712	0.871110	0.202145
C754	C	0.665606	0.796226	0.036206
C755	C	0.583159	0.963069	0.201068
C756	C	0.500356	0.704077	0.034749
C757	C	0.635992	0.963128	0.242517
C758	C	0.553311	0.703182	0.075937
C759	C	0.529621	0.869661	0.242451
C760	C	0.613630	0.797211	0.076465
C761	C	0.515642	0.841693	0.217104
C762	C	0.599219	0.824904	0.050918
C763	C	0.536055	0.828090	0.183372
C764	C	0.619277	0.838552	0.016879
C765	C	0.644437	0.699773	0.155540
C766	C	0.560506	0.966573	0.321891
C767	C	0.522459	0.798158	0.156892
C768	C	0.605348	0.868057	0.323036
H481	H	0.495513	0.667564	0.314500
H482	H	0.427447	0.999555	0.057534
H483	H	0.440880	0.883502	0.197545
H484	H	0.358323	0.784284	0.031676
H485	H	0.390051	0.951708	0.196187
H486	H	0.474107	0.715911	0.029962
H487	H	0.484457	0.951724	0.269587
H488	H	0.402080	0.714368	0.102932
H489	H	0.347910	0.880981	0.268869
H490	H	0.432126	0.785842	0.103017
H491	H	0.406317	0.835067	0.058421
H492	H	0.579041	0.999858	0.147704
H493	H	0.510687	0.999602	0.224507
H494	H	0.586233	0.833632	0.149761
H495	H	0.607547	0.883502	0.197545
H496	H	0.524989	0.784284	0.031676
H497	H	0.556718	0.951708	0.196187
H498	H	0.640774	0.715911	0.029962
H499	H	0.651123	0.951724	0.269587
H500	H	0.568747	0.714368	0.102932
H501	H	0.514576	0.880981	0.268869
H502	H	0.598793	0.785842	0.103017
H503	H	0.656224	0.831077	0.224501
H504	H	0.572984	0.835067	0.058421
H505	H	0.372373	0.682874	0.151811
H506	H	0.606669	0.965827	0.352543
H507	H	0.458613	0.813952	0.155634
H508	H	0.554219	0.862002	0.329492
H509	H	0.349327	0.708592	0.222047
H510	H	0.590616	0.959131	0.083683
H511	H	0.485095	0.789309	0.224836
H512	H	0.387093	0.861705	0.328582
N121	N	0.436146	0.950418	0.234943
N122	N	0.353576	0.716286	0.068684
N123	N	0.395514	0.883437	0.235279
N124	N	0.479603	0.783643	0.069347
N125	N	0.602812	0.950418	0.234943
N126	N	0.520243	0.716286	0.068684
N127	N	0.562181	0.883437	0.235279
N128	N	0.646270	0.783643	0.069347
Ni61	Ni	0.415667	0.917162	0.278775
Ni62	Ni	0.499991	0.749333	0.113059
Ni63	Ni	0.582334	0.917162	0.278775
Ni64	Ni	0.666657	0.749333	0.113059
O241	O	0.374259	0.782563	0.127624
O242	O	0.457069	0.883659	0.293764
O243	O	0.459210	0.715836	0.125726
O244	O	0.375033	0.950784	0.292087
O245	O	0.491023	0.785387	0.160998
O246	O	0.407046	0.880472	0.326626
O247	O	0.342947	0.711719	0.160359
O248	O	0.425562	0.954253	0.326466
O249	O	0.540926	0.782563	0.127624
O250	O	0.623736	0.883659	0.293764
O251	O	0.625877	0.715836	0.125726
O252	O	0.541699	0.950784	0.292087
O253	O	0.657690	0.785387	0.160998
O254	O	0.573712	0.880472	0.326626
O255	O	0.509613	0.711719	0.160359
O256	O	0.592229	0.954253	0.326466
S121	S	0.396912	0.658324	0.133106
S122	S	0.651001	1.012142	0.297637
S123	S	0.435343	0.839843	0.136995
S124	S	0.516743	0.826755	0.303575
S125	S	0.356102	0.675636	0.239677
S126	S	0.607427	0.989243	0.069942
S127	S	0.477220	0.822978	0.238441
S128	S	0.351448	0.828558	0.305378
C769	C	0.429404	0.990017	0.507328
C770	C	0.346126	0.677035	0.340769
C771	C	0.463545	0.670590	0.515497
C772	C	0.380081	0.995915	0.348715
C773	C	0.483972	0.990067	0.550124
C774	C	0.400840	0.676118	0.383298
C775	C	0.402727	0.843235	0.508795
C776	C	0.486182	0.823803	0.342635
C777	C	0.415046	0.871110	0.535478
C778	C	0.498940	0.796226	0.369539
C779	C	0.416492	0.963069	0.534401
C780	C	0.333690	0.704077	0.368082
C781	C	0.469326	0.963128	0.575851
C782	C	0.386645	0.703182	0.409271
C783	C	0.362954	0.869661	0.575784
C784	C	0.446963	0.797211	0.409798
C785	C	0.348975	0.841693	0.550437
C786	C	0.432553	0.824904	0.384251
C787	C	0.369388	0.828090	0.516705
C788	C	0.452611	0.838552	0.350213
C789	C	0.477770	0.699773	0.488874
C790	C	0.393839	0.966573	0.655224
C791	C	0.355793	0.798158	0.490225
C792	C	0.438681	0.868057	0.656369
C793	C	0.596071	0.990017	0.507328
C794	C	0.512793	0.677035	0.340769
C795	C	0.630211	0.670590	0.515497
C796	C	0.546748	0.995915	0.348715
C797	C	0.650638	0.990067	0.550124
C798	C	0.567507	0.676118	0.383298
C799	C	0.569394	0.843235	0.508795
C800	C	0.652849	0.823803	0.342635
C801	C	0.581712	0.871110	0.535478
C802	C	0.665606	0.796226	0.369539
C803	C	0.583159	0.963069	0.534401
C804	C	0.500356	0.704077	0.368082
C805	C	0.635992	0.963128	0.575851
C806	C	0.553311	0.703182	0.409271
C807	C	0.529621	0.869661	0.575784
C808	C	0.613630	0.797211	0.409798
C809	C	0.515642	0.841693	0.550437
C810	C	0.599219	0.824904	0.384251
C811	C	0.536055	0.828090	0.516705
C812	C	0.619277	0.838552	0.350213
C813	C	0.644437	0.699773	0.488874
C814	C	0.560506	0.966573	0.655224
C815	C	0.522459	0.798158	0.490225
C816	C	0.605348	0.868057	0.656369
H513	H	0.495513	0.667564	0.647833
H514	H	0.427447	0.999555	0.390867
H515	H	0.440880	0.883502	0.530878
H516	H	0.358323	0.784284	0.365009
H517	H	0.390051	0.951708	0.529520
H518	H	0.474107	0.715911	0.363295
H519	H	0.484457	0.951724	0.602920
H520	H	0.402080	0.714368	0.436266
H521	H	0.347910	0.880981	0.602203
H522	H	0.432126	0.785842	0.436350
H523	H	0.406317	0.835067	0.391755
H524	H	0.579041	0.999858	0.481038
H525	H	0.510687	0.999602	0.557840
H526	H	0.586233	0.833632	0.483094
H527	H	0.607547	0.883502	0.530878
H528	H	0.524989	0.784284	0.365009
H529	H	0.556718	0.951708	0.529520
H530	H	0.640774	0.715911	0.363295
H531	H	0.651123	0.951724	0.602920
H532	H	0.568747	0.714368	0.436266
H533	H	0.514576	0.880981	0.602203
H534	H	0.598793	0.785842	0.436350
H535	H	0.656224	0.831077	0.557834
H536	H	0.572984	0.835067	0.391755
H537	H	0.372373	0.682874	0.485145
H538	H	0.606669	0.965827	0.685877
H539	H	0.458613	0.813952	0.488967
H540	H	0.554219	0.862002	0.662826
H541	H	0.349327	0.708592	0.555380
H542	H	0.590616	0.959131	0.417017
H543	H	0.485095	0.789309	0.558169
H544	H	0.387093	0.861705	0.661915
N129	N	0.436146	0.950418	0.568276
N130	N	0.353576	0.716286	0.402017
N131	N	0.395514	0.883437	0.568613
N132	N	0.479603	0.783643	0.402680
N133	N	0.602812	0.950418	0.568276
N134	N	0.520243	0.716286	0.402017
N135	N	0.562181	0.883437	0.568613
N136	N	0.646270	0.783643	0.402680
Ni65	Ni	0.415667	0.917162	0.612109
Ni66	Ni	0.499991	0.749333	0.446393
Ni67	Ni	0.582334	0.917162	0.612109
Ni68	Ni	0.666657	0.749333	0.446393
O257	O	0.374259	0.782563	0.460958
O258	O	0.457069	0.883659	0.627097
O259	O	0.459210	0.715836	0.459059
O260	O	0.375033	0.950784	0.625420
O261	O	0.491023	0.785387	0.494331
O262	O	0.407046	0.880472	0.659959
O263	O	0.342947	0.711719	0.493693
O264	O	0.425562	0.954253	0.659800
O265	O	0.540926	0.782563	0.460958
O266	O	0.623736	0.883659	0.627097
O267	O	0.625877	0.715836	0.459059
O268	O	0.541699	0.950784	0.625420
O269	O	0.657690	0.785387	0.494331
O270	O	0.573712	0.880472	0.659959
O271	O	0.509613	0.711719	0.493693
O272	O	0.592229	0.954253	0.659800
S129	S	0.396912	0.658324	0.466440
S130	S	0.651001	1.012142	0.630970
S131	S	0.435343	0.839843	0.470328
S132	S	0.516743	0.826755	0.636908
S133	S	0.356102	0.675636	0.573010
S134	S	0.607427	0.989243	0.403276
S135	S	0.477220	0.822978	0.571774
S136	S	0.351448	0.828558	0.638711
C817	C	0.429404	0.990017	0.840661
C818	C	0.346126	0.677035	0.674103
C819	C	0.463545	0.670590	0.848831
C820	C	0.380081	0.995915	0.682049
C821	C	0.483972	0.990067	0.883457
C822	C	0.400840	0.676118	0.716631
C823	C	0.402727	0.843235	0.842128
C824	C	0.486182	0.823803	0.675968
C825	C	0.415046	0.871110	0.868812
C826	C	0.498940	0.796226	0.702872
C827	C	0.416492	0.963069	0.867734
C828	C	0.333690	0.704077	0.701416
C829	C	0.469326	0.963128	0.909184
C830	C	0.386645	0.703182	0.742604
C831	C	0.362954	0.869661	0.909117
C832	C	0.446963	0.797211	0.743131
C833	C	0.348975	0.841693	0.883771
C834	C	0.432553	0.824904	0.717585
C835	C	0.369388	0.828090	0.850039
C836	C	0.452611	0.838552	0.683546
C837	C	0.477770	0.699773	0.822207
C838	C	0.393839	0.966573	0.988557
C839	C	0.355793	0.798158	0.823559
C840	C	0.438681	0.868057	0.989702
C841	C	0.596071	0.990017	0.840661
C842	C	0.512793	0.677035	0.674103
C843	C	0.630211	0.670590	0.848831
C844	C	0.546748	0.995915	0.682049
C845	C	0.650638	0.990067	0.883457
C846	C	0.567507	0.676118	0.716631
C847	C	0.569394	0.843235	0.842128
C848	C	0.652849	0.823803	0.675968
C849	C	0.581712	0.871110	0.868812
C850	C	0.665606	0.796226	0.702872
C851	C	0.583159	0.963069	0.867734
C852	C	0.500356	0.704077	0.701416
C853	C	0.635992	0.963128	0.909184
C854	C	0.553311	0.703182	0.742604
C855	C	0.529621	0.869661	0.909117
C856	C	0.613630	0.797211	0.743131
C857	C	0.515642	0.841693	0.883771
C858	C	0.599219	0.824904	0.717585
C859	C	0.536055	0.828090	0.850039
C860	C	0.619277	0.838552	0.683546
C861	C	0.644437	0.699773	0.822207
C862	C	0.560506	0.966573	0.988557
C863	C	0.522459	0.798158	0.823559
C864	C	0.605348	0.868057	0.989702
H545	H	0.495513	0.667564	0.981166
H546	H	0.427447	0.999555	0.724201
H547	H	0.440880	0.883502	0.864212
H548	H	0.358323	0.784284	0.698343
H549	H	0.390051	0.951708	0.862853
H550	H	0.474107	0.715911	0.696629
H551	H	0.484457	0.951724	0.936254
H552	H	0.402080	0.714368	0.769599
H553	H	0.347910	0.880981	0.935536
H554	H	0.432126	0.785842	0.769684
H555	H	0.406317	0.835067	0.725088
H556	H	0.579041	0.999858	0.814371
H557	H	0.510687	0.999602	0.891173
H558	H	0.586233	0.833632	0.816427
H559	H	0.607547	0.883502	0.864212
H560	H	0.524989	0.784284	0.698343
H561	H	0.556718	0.951708	0.862853
H562	H	0.640774	0.715911	0.696629
H563	H	0.651123	0.951724	0.936254
H564	H	0.568747	0.714368	0.769599
H565	H	0.514576	0.880981	0.935536
H566	H	0.598793	0.785842	0.769684
H567	H	0.656224	0.831077	0.891167
H568	H	0.572984	0.835067	0.725088
H569	H	0.372373	0.682874	0.818478
H570	H	0.606669	0.965827	1.019210
H571	H	0.458613	0.813952	0.822300
H572	H	0.554219	0.862002	0.996159
H573	H	0.349327	0.708592	0.888714
H574	H	0.590616	0.959131	0.750350
H575	H	0.485095	0.789309	0.891502
H576	H	0.387093	0.861705	0.995249
N137	N	0.436146	0.950418	0.901609
N138	N	0.353576	0.716286	0.735351
N139	N	0.395514	0.883437	0.901946
N140	N	0.479603	0.783643	0.736014
N141	N	0.602812	0.950418	0.901609
N142	N	0.520243	0.716286	0.735351
N143	N	0.562181	0.883437	0.901946
N144	N	0.646270	0.783643	0.736014
Ni69	Ni	0.415667	0.917162	0.945442
Ni70	Ni	0.499991	0.749333	0.779726
Ni71	Ni	0.582334	0.917162	0.945442
Ni72	Ni	0.666657	0.749333	0.779726
O273	O	0.374259	0.782563	0.794291
O274	O	0.457069	0.883659	0.960431
O275	O	0.459210	0.715836	0.792393
O276	O	0.375033	0.950784	0.958754
O277	O	0.491023	0.785387	0.827665
O278	O	0.407046	0.880472	0.993292
O279	O	0.342947	0.711719	0.827026
O280	O	0.425562	0.954253	0.993133
O281	O	0.540926	0.782563	0.794291
O282	O	0.623736	0.883659	0.960431
O283	O	0.625877	0.715836	0.792393
O284	O	0.541699	0.950784	0.958754
O285	O	0.657690	0.785387	0.827665
O286	O	0.573712	0.880472	0.993292
O287	O	0.509613	0.711719	0.827026
O288	O	0.592229	0.954253	0.993133
S137	S	0.396912	0.658324	0.799773
S138	S	0.651001	1.012142	0.964303
S139	S	0.435343	0.839843	0.803661
S140	S	0.516743	0.826755	0.970241
S141	S	0.356102	0.675636	0.906344
S142	S	0.607427	0.989243	0.736609
S143	S	0.477220	0.822978	0.905108
S144	S	0.351448	0.828558	0.972044
C865	C	0.762737	0.323350	0.173995
C866	C	0.679460	0.010369	0.007436
C867	C	0.796878	0.003923	0.182164
C868	C	0.713415	0.329248	0.015382
C869	C	0.817305	0.323401	0.216790
C870	C	0.734173	0.009451	0.049964
C871	C	0.736060	0.176568	0.175461
C872	C	0.819515	0.157136	0.009301
C873	C	0.748379	0.204444	0.202145
C874	C	0.832273	0.129559	0.036206
C875	C	0.749825	0.296402	0.201068
C876	C	0.667023	0.037411	0.034749
C877	C	0.802659	0.296461	0.242517
C878	C	0.719978	0.036516	0.075937
C879	C	0.696287	0.202994	0.242451
C880	C	0.780297	0.130544	0.076465
C881	C	0.682308	0.175026	0.217104
C882	C	0.765886	0.158237	0.050918
C883	C	0.702721	0.161423	0.183372
C884	C	0.785944	0.171885	0.016879
C885	C	0.811103	0.033106	0.155540
C886	C	0.727172	0.299907	0.321891
C887	C	0.689126	0.131491	0.156892
C888	C	0.772014	0.201391	0.323036
C889	C	0.929404	0.323350	0.173995
C890	C	0.846126	0.010369	0.007436
C891	C	0.963545	0.003923	0.182164
C892	C	0.880081	0.329248	0.015382
C893	C	0.983972	0.323401	0.216790
C894	C	0.900840	0.009451	0.049964
C895	C	0.902727	0.176568	0.175461
C896	C	0.986182	0.157136	0.009301
C897	C	0.915046	0.204444	0.202145
C898	C	0.998940	0.129559	0.036206
C899	C	0.916492	0.296402	0.201068
C900	C	0.833690	0.037411	0.034749
C901	C	0.969326	0.296461	0.242517
C902	C	0.886645	0.036516	0.075937
C903	C	0.862954	0.202994	0.242451
C904	C	0.946963	0.130544	0.076465
C905	C	0.848975	0.175026	0.217104
C906	C	0.932553	0.158237	0.050918
C907	C	0.869388	0.161423	0.183372
C908	C	0.952611	0.171885	0.016879
C909	C	0.977770	0.033106	0.155540
C910	C	0.893839	0.299907	0.321891
C911	C	0.855792	0.131491	0.156892
C912	C	0.938681	0.201391	0.323036
H577	H	0.828846	0.000897	0.314500
H578	H	0.760780	0.332888	0.057534
H579	H	0.774214	0.216835	0.197545
H580	H	0.691656	0.117617	0.031676
H581	H	0.723385	0.285041	0.196187
H582	H	0.807441	0.049244	0.029962
H583	H	0.817790	0.285058	0.269587
H584	H	0.735413	0.047701	0.102932
H585	H	0.681243	0.214315	0.268869
H586	H	0.765459	0.119175	0.103017
H587	H	0.739651	0.168400	0.058421
H588	H	0.912375	0.333192	0.147704
H589	H	0.844021	0.332935	0.224507
H590	H	0.919567	0.166965	0.149761
H591	H	0.940880	0.216835	0.197545
H592	H	0.858323	0.117617	0.031676
H593	H	0.890051	0.285041	0.196187
H594	H	0.974107	0.049244	0.029962
H595	H	0.984457	0.285058	0.269587
H596	H	0.902080	0.047701	0.102932
H597	H	0.847910	0.214315	0.268869
H598	H	0.932126	0.119175	0.103017
H599	H	0.989557	0.164410	0.224501
H600	H	0.906317	0.168400	0.058421
H601	H	0.705706	0.016207	0.151811
H602	H	0.940002	0.299160	0.352543
H603	H	0.791947	0.147285	0.155634
H604	H	0.887552	0.195335	0.329492
H605	H	0.682660	0.041926	0.222047
H606	H	0.923949	0.292465	0.083683
H607	H	0.818429	0.122643	0.224836
H608	H	0.720426	0.195038	0.328582
N145	N	0.769479	0.283751	0.234943
N146	N	0.686910	0.049619	0.068684
N147	N	0.728847	0.216770	0.235279
N148	N	0.812937	0.116976	0.069347
N149	N	0.936146	0.283751	0.234943
N150	N	0.853576	0.049619	0.068684
N151	N	0.895514	0.216770	0.235279
N152	N	0.979603	0.116976	0.069347
Ni73	Ni	0.749001	0.250495	0.278775
Ni74	Ni	0.833324	0.082666	0.113059
Ni75	Ni	0.915667	0.250495	0.278775
Ni76	Ni	0.999991	0.082666	0.113059
O289	O	0.707593	0.115896	0.127624
O290	O	0.790403	0.216992	0.293764
O291	O	0.792543	0.049169	0.125726
O292	O	0.708366	0.284117	0.292087
O293	O	0.824356	0.118720	0.160998
O294	O	0.740379	0.213805	0.326626
O295	O	0.676280	0.045053	0.160359
O296	O	0.758895	0.287586	0.326466
O297	O	0.874260	0.115896	0.127624
O298	O	0.957069	0.216992	0.293764
O299	O	0.959210	0.049169	0.125726
O300	O	0.875033	0.284117	0.292087
O301	O	0.991023	0.118720	0.160998
O302	O	0.907046	0.213805	0.326626
O303	O	0.842947	0.045053	0.160359
O304	O	0.925562	0.287586	0.326466
S145	S	0.730245	-0.008343	0.133106
S146	S	0.984334	0.345476	0.297637
S147	S	0.768676	0.173176	0.136995
S148	S	0.850076	0.160088	0.303575
S149	S	0.689435	0.008970	0.239677
S150	S	0.940761	0.322577	0.069942
S151	S	0.810554	0.156311	0.238441
S152	S	0.684781	0.161891	0.305378
C913	C	0.762737	0.323350	0.507328
C914	C	0.679460	0.010369	0.340769
C915	C	0.796878	0.003923	0.515497
C916	C	0.713415	0.329248	0.348715
C917	C	0.817305	0.323401	0.550124
C918	C	0.734173	0.009451	0.383298
C919	C	0.736060	0.176568	0.508795
C920	C	0.819515	0.157136	0.342635
C921	C	0.748379	0.204444	0.535478
C922	C	0.832273	0.129559	0.369539
C923	C	0.749825	0.296402	0.534401
C924	C	0.667023	0.037411	0.368082
C925	C	0.802659	0.296461	0.575851
C926	C	0.719978	0.036516	0.409271
C927	C	0.696287	0.202994	0.575784
C928	C	0.780297	0.130544	0.409798
C929	C	0.682308	0.175026	0.550437
C930	C	0.765886	0.158237	0.384251
C931	C	0.702721	0.161423	0.516705
C932	C	0.785944	0.171885	0.350213
C933	C	0.811103	0.033106	0.488874
C934	C	0.727172	0.299907	0.655224
C935	C	0.689126	0.131491	0.490225
C936	C	0.772014	0.201391	0.656369
C937	C	0.929404	0.323350	0.507328
C938	C	0.846126	0.010369	0.340769
C939	C	0.963545	0.003923	0.515497
C940	C	0.880081	0.329248	0.348715
C941	C	0.983972	0.323401	0.550124
C942	C	0.900840	0.009451	0.383298
C943	C	0.902727	0.176568	0.508795
C944	C	0.986182	0.157136	0.342635
C945	C	0.915046	0.204444	0.535478
C946	C	0.998940	0.129559	0.369539
C947	C	0.916492	0.296402	0.534401
C948	C	0.833690	0.037411	0.368082
C949	C	0.969326	0.296461	0.575851
C950	C	0.886645	0.036516	0.409271
C951	C	0.862954	0.202994	0.575784
C952	C	0.946963	0.130544	0.409798
C953	C	0.848975	0.175026	0.550437
C954	C	0.932553	0.158237	0.384251
C955	C	0.869388	0.161423	0.516705
C956	C	0.952611	0.171885	0.350213
C957	C	0.977770	0.033106	0.488874
C958	C	0.893839	0.299907	0.655224
C959	C	0.855792	0.131491	0.490225
C960	C	0.938681	0.201391	0.656369
H609	H	0.828846	0.000897	0.647833
H610	H	0.760780	0.332888	0.390867
H611	H	0.774214	0.216835	0.530878
H612	H	0.691656	0.117617	0.365009
H613	H	0.723385	0.285041	0.529520
H614	H	0.807441	0.049244	0.363295
H615	H	0.817790	0.285058	0.602920
H616	H	0.735413	0.047701	0.436266
H617	H	0.681243	0.214315	0.602203
H618	H	0.765459	0.119175	0.436350
H619	H	0.739651	0.168400	0.391755
H620	H	0.912375	0.333192	0.481038
H621	H	0.844021	0.332935	0.557840
H622	H	0.919567	0.166965	0.483094
H623	H	0.940880	0.216835	0.530878
H624	H	0.858323	0.117617	0.365009
H625	H	0.890051	0.285041	0.529520
H626	H	0.974107	0.049244	0.363295
H627	H	0.984457	0.285058	0.602920
H628	H	0.902080	0.047701	0.436266
H629	H	0.847910	0.214315	0.602203
H630	H	0.932126	0.119175	0.436350
H631	H	0.989557	0.164410	0.557834
H632	H	0.906317	0.168400	0.391755
H633	H	0.705706	0.016207	0.485145
H634	H	0.940002	0.299160	0.685877
H635	H	0.791947	0.147285	0.488967
H636	H	0.887552	0.195335	0.662826
H637	H	0.682660	0.041926	0.555380
H638	H	0.923949	0.292465	0.417017
H639	H	0.818429	0.122643	0.558169
H640	H	0.720426	0.195038	0.661915
N153	N	0.769479	0.283751	0.568276
N154	N	0.686910	0.049619	0.402017
N155	N	0.728847	0.216770	0.568613
N156	N	0.812937	0.116976	0.402680
N157	N	0.936146	0.283751	0.568276
N158	N	0.853576	0.049619	0.402017
N159	N	0.895514	0.216770	0.568613
N160	N	0.979603	0.116976	0.402680
Ni77	Ni	0.749001	0.250495	0.612109
Ni78	Ni	0.833324	0.082666	0.446393
Ni79	Ni	0.915667	0.250495	0.612109
Ni80	Ni	0.999991	0.082666	0.446393
O305	O	0.707593	0.115896	0.460958
O306	O	0.790403	0.216992	0.627097
O307	O	0.792543	0.049169	0.459059
O308	O	0.708366	0.284117	0.625420
O309	O	0.824356	0.118720	0.494331
O310	O	0.740379	0.213805	0.659959
O311	O	0.676280	0.045053	0.493693
O312	O	0.758895	0.287586	0.659800
O313	O	0.874260	0.115896	0.460958
O314	O	0.957069	0.216992	0.627097
O315	O	0.959210	0.049169	0.459059
O316	O	0.875033	0.284117	0.625420
O317	O	0.991023	0.118720	0.494331
O318	O	0.907046	0.213805	0.659959
O319	O	0.842947	0.045053	0.493693
O320	O	0.925562	0.287586	0.659800
S153	S	0.730245	-0.008343	0.466440
S154	S	0.984334	0.345476	0.630970
S155	S	0.768676	0.173176	0.470328
S156	S	0.850076	0.160088	0.636908
S157	S	0.689435	0.008970	0.573010
S158	S	0.940761	0.322577	0.403276
S159	S	0.810554	0.156311	0.571774
S160	S	0.684781	0.161891	0.638711
C961	C	0.762737	0.323350	0.840661
C962	C	0.679460	0.010369	0.674103
C963	C	0.796878	0.003923	0.848831
C964	C	0.713415	0.329248	0.682049
C965	C	0.817305	0.323401	0.883457
C966	C	0.734173	0.009451	0.716631
C967	C	0.736060	0.176568	0.842128
C968	C	0.819515	0.157136	0.675968
C969	C	0.748379	0.204444	0.868812
C970	C	0.832273	0.129559	0.702872
C971	C	0.749825	0.296402	0.867734
C972	C	0.667023	0.037411	0.701416
C973	C	0.802659	0.296461	0.909184
C974	C	0.719978	0.036516	0.742604
C975	C	0.696287	0.202994	0.909117
C976	C	0.780297	0.130544	0.743131
C977	C	0.682308	0.175026	0.883771
C978	C	0.765886	0.158237	0.717585
C979	C	0.702721	0.161423	0.850039
C980	C	0.785944	0.171885	0.683546
C981	C	0.811103	0.033106	0.822207
C982	C	0.727172	0.299907	0.988557
C983	C	0.689126	0.131491	0.823559
C984	C	0.772014	0.201391	0.989702
C985	C	0.929404	0.323350	0.840661
C986	C	0.846126	0.010369	0.674103
C987	C	0.963545	0.003923	0.848831
C988	C	0.880081	0.329248	0.682049
C989	C	0.983972	0.323401	0.883457
C990	C	0.900840	0.009451	0.716631
C991	C	0.902727	0.176568	0.842128
C992	C	0.986182	0.157136	0.675968
C993	C	0.915046	0.204444	0.868812
C994	C	0.998940	0.129559	0.702872
C995	C	0.916492	0.296402	0.867734
C996	C	0.833690	0.037411	0.701416
C997	C	0.969326	0.296461	0.909184
C998	C	0.886645	0.036516	0.742604
C999	C	0.862954	0.202994	0.909117
C1000	C	0.946963	0.130544	0.743131
C1001	C	0.848975	0.175026	0.883771
C1002	C	0.932553	0.158237	0.717585
C1003	C	0.869388	0.161423	0.850039
C1004	C	0.952611	0.171885	0.683546
C1005	C	0.977770	0.033106	0.822207
C1006	C	0.893839	0.299907	0.988557
C1007	C	0.855792	0.131491	0.823559
C1008	C	0.938681	0.201391	0.989702
H641	H	0.828846	0.000897	0.981166
H642	H	0.760780	0.332888	0.724201
H643	H	0.774214	0.216835	0.864212
H644	H	0.691656	0.117617	0.698343
H645	H	0.723385	0.285041	0.862853
H646	H	0.807441	0.049244	0.696629
H647	H	0.817790	0.285058	0.936254
H648	H	0.735413	0.047701	0.769599
H649	H	0.681243	0.214315	0.935536
H650	H	0.765459	0.119175	0.769684
H651	H	0.739651	0.168400	0.725088
H652	H	0.912375	0.333192	0.814371
H653	H	0.844021	0.332935	0.891173
H654	H	0.919567	0.166965	0.816427
H655	H	0.940880	0.216835	0.864212
H656	H	0.858323	0.117617	0.698343
H657	H	0.890051	0.285041	0.862853
H658	H	0.974107	0.049244	0.696629
H659	H	0.984457	0.285058	0.936254
H660	H	0.902080	0.047701	0.769599
H661	H	0.847910	0.214315	0.935536
H662	H	0.932126	0.119175	0.769684
H663	H	0.989557	0.164410	0.891167
H664	H	0.906317	0.168400	0.725088
H665	H	0.705706	0.016207	0.818478
H666	H	0.940002	0.299160	1.019210
H667	H	0.791947	0.147285	0.822300
H668	H	0.887552	0.195335	0.996159
H669	H	0.682660	0.041926	0.888714
H670	H	0.923949	0.292465	0.750350
H671	H	0.818429	0.122643	0.891502
H672	H	0.720426	0.195038	0.995249
N161	N	0.769479	0.283751	0.901609
N162	N	0.686910	0.049619	0.735351
N163	N	0.728847	0.216770	0.901946
N164	N	0.812937	0.116976	0.736014
N165	N	0.936146	0.283751	0.901609
N166	N	0.853576	0.049619	0.735351
N167	N	0.895514	0.216770	0.901946
N168	N	0.979603	0.116976	0.736014
Ni81	Ni	0.749001	0.250495	0.945442
Ni82	Ni	0.833324	0.082666	0.779726
Ni83	Ni	0.915667	0.250495	0.945442
Ni84	Ni	0.999991	0.082666	0.779726
O321	O	0.707593	0.115896	0.794291
O322	O	0.790403	0.216992	0.960431
O323	O	0.792543	0.049169	0.792393
O324	O	0.708366	0.284117	0.958754
O325	O	0.824356	0.118720	0.827665
O326	O	0.740379	0.213805	0.993292
O327	O	0.676280	0.045053	0.827026
O328	O	0.758895	0.287586	0.993133
O329	O	0.874260	0.115896	0.794291
O330	O	0.957069	0.216992	0.960431
O331	O	0.959210	0.049169	0.792393
O332	O	0.875033	0.284117	0.958754
O333	O	0.991023	0.118720	0.827665
O334	O	0.907046	0.213805	0.993292
O335	O	0.842947	0.045053	0.827026
O336	O	0.925562	0.287586	0.993133
S161	S	0.730245	-0.008343	0.799773
S162	S	0.984334	0.345476	0.964303
S163	S	0.768676	0.173176	0.803661
S164	S	0.850076	0.160088	0.970241
S165	S	0.689435	0.008970	0.906344
S166	S	0.940761	0.322577	0.736609
S167	S	0.810554	0.156311	0.905108
S168	S	0.684781	0.161891	0.972044
C1009	C	0.762737	0.656683	0.173995
C1010	C	0.679460	0.343702	0.007436
C1011	C	0.796878	0.337257	0.182164
C1012	C	0.713415	0.662581	0.015382
C1013	C	0.817305	0.656734	0.216790
C1014	C	0.734173	0.342784	0.049964
C1015	C	0.736060	0.509901	0.175461
C1016	C	0.819515	0.490470	0.009301
C1017	C	0.748379	0.537777	0.202145
C1018	C	0.832273	0.462892	0.036206
C1019	C	0.749825	0.629735	0.201068
C1020	C	0.667023	0.370744	0.034749
C1021	C	0.802659	0.629794	0.242517
C1022	C	0.719978	0.369849	0.075937
C1023	C	0.696287	0.536328	0.242451
C1024	C	0.780297	0.463878	0.076465
C1025	C	0.682308	0.508360	0.217104
C1026	C	0.765886	0.491570	0.050918
C1027	C	0.702721	0.494757	0.183372
C1028	C	0.785944	0.505219	0.016879
C1029	C	0.811103	0.366440	0.155540
C1030	C	0.727172	0.633240	0.321891
C1031	C	0.689126	0.464825	0.156892
C1032	C	0.772014	0.534724	0.323036
C1033	C	0.929404	0.656683	0.173995
C1034	C	0.846126	0.343702	0.007436
C1035	C	0.963545	0.337257	0.182164
C1036	C	0.880081	0.662581	0.015382
C1037	C	0.983972	0.656734	0.216790
C1038	C	0.900840	0.342784	0.049964
C1039	C	0.902727	0.509901	0.175461
C1040	C	0.986182	0.490470	0.009301
C1041	C	0.915046	0.537777	0.202145
C1042	C	0.998940	0.462892	0.036206
C1043	C	0.916492	0.629735	0.201068
C1044	C	0.833690	0.370744	0.034749
C1045	C	0.969326	0.629794	0.242517
C1046	C	0.886645	0.369849	0.075937
C1047	C	0.862954	0.536328	0.242451
C1048	C	0.946963	0.463878	0.076465
C1049	C	0.848975	0.508360	0.217104
C1050	C	0.932553	0.491570	0.050918
C1051	C	0.869388	0.494757	0.183372
C1052	C	0.952611	0.505219	0.016879
C1053	C	0.977770	0.366440	0.155540
C1054	C	0.893839	0.633240	0.321891
C1055	C	0.855792	0.464825	0.156892
C1056	C	0.938681	0.534724	0.323036
H673	H	0.828846	0.334231	0.314500
H674	H	0.760780	0.666222	0.057534
H675	H	0.774214	0.550169	0.197545
H676	H	0.691656	0.450950	0.031676
H677	H	0.723385	0.618374	0.196187
H678	H	0.807441	0.382577	0.029962
H679	H	0.817790	0.618391	0.269587
H680	H	0.735413	0.381034	0.102932
H681	H	0.681243	0.547648	0.268869
H682	H	0.765459	0.452509	0.103017
H683	H	0.739651	0.501734	0.058421
H684	H	0.912375	0.666525	0.147704
H685	H	0.844021	0.666268	0.224507
H686	H	0.919567	0.500298	0.149761
H687	H	0.940880	0.550169	0.197545
H688	H	0.858323	0.450950	0.031676
H689	H	0.890051	0.618374	0.196187
H690	H	0.974107	0.382577	0.029962
H691	H	0.984457	0.618391	0.269587
H692	H	0.902080	0.381034	0.102932
H693	H	0.847910	0.547648	0.268869
H694	H	0.932126	0.452509	0.103017
H695	H	0.989557	0.497744	0.224501
H696	H	0.906317	0.501734	0.058421
H697	H	0.705706	0.349541	0.151811
H698	H	0.940002	0.632493	0.352543
H699	H	0.791947	0.480618	0.155634
H700	H	0.887552	0.528668	0.329492
H701	H	0.682660	0.375259	0.222047
H702	H	0.923949	0.625798	0.083683
H703	H	0.818429	0.455976	0.224836
H704	H	0.720426	0.528371	0.328582
N169	N	0.769479	0.617084	0.234943
N170	N	0.686910	0.382952	0.068684
N171	N	0.728847	0.550103	0.235279
N172	N	0.812937	0.450309	0.069347
N173	N	0.936146	0.617084	0.234943
N174	N	0.853576	0.382952	0.068684
N175	N	0.895514	0.550103	0.235279
N176	N	0.979603	0.450309	0.069347
Ni85	Ni	0.749001	0.583829	0.278775
Ni86	Ni	0.833324	0.416000	0.113059
Ni87	Ni	0.915667	0.583829	0.278775
Ni88	Ni	0.999991	0.416000	0.113059
O337	O	0.707593	0.449230	0.127624
O338	O	0.790403	0.550326	0.293764
O339	O	0.792543	0.382502	0.125726
O340	O	0.708366	0.617451	0.292087
O341	O	0.824356	0.452053	0.160998
O342	O	0.740379	0.547138	0.326626
O343	O	0.676280	0.378386	0.160359
O344	O	0.758895	0.620919	0.326466
O345	O	0.874260	0.449230	0.127624
O346	O	0.957069	0.550326	0.293764
O347	O	0.959210	0.382502	0.125726
O348	O	0.875033	0.617451	0.292087
O349	O	0.991023	0.452053	0.160998
O350	O	0.907046	0.547138	0.326626
O351	O	0.842947	0.378386	0.160359
O352	O	0.925562	0.620919	0.326466
S169	S	0.730245	0.324991	0.133106
S170	S	0.984334	0.678809	0.297637
S171	S	0.768676	0.506509	0.136995
S172	S	0.850076	0.493422	0.303575
S173	S	0.689435	0.342303	0.239677
S174	S	0.940761	0.655910	0.069942
S175	S	0.810554	0.489644	0.238441
S176	S	0.684781	0.495224	0.305378
C1057	C	0.762737	0.656683	0.507328
C1058	C	0.679460	0.343702	0.340769
C1059	C	0.796878	0.337257	0.515497
C1060	C	0.713415	0.662581	0.348715
C1061	C	0.817305	0.656734	0.550124
C1062	C	0.734173	0.342784	0.383298
C1063	C	0.736060	0.509901	0.508795
C1064	C	0.819515	0.490470	0.342635
C1065	C	0.748379	0.537777	0.535478
C1066	C	0.832273	0.462892	0.369539
C1067	C	0.749825	0.629735	0.534401
C1068	C	0.667023	0.370744	0.368082
C1069	C	0.802659	0.629794	0.575851
C1070	C	0.719978	0.369849	0.409271
C1071	C	0.696287	0.536328	0.575784
C1072	C	0.780297	0.463878	0.409798
C1073	C	0.682308	0.508360	0.550437
C1074	C	0.765886	0.491570	0.384251
C1075	C	0.702721	0.494757	0.516705
C1076	C	0.785944	0.505219	0.350213
C1077	C	0.811103	0.366440	0.488874
C1078	C	0.727172	0.633240	0.655224
C1079	C	0.689126	0.464825	0.490225
C1080	C	0.772014	0.534724	0.656369
C1081	C	0.929404	0.656683	0.507328
C1082	C	0.846126	0.343702	0.340769
C1083	C	0.963545	0.337257	0.515497
C1084	C	0.880081	0.662581	0.348715
C1085	C	0.983972	0.656734	0.550124
C1086	C	0.900840	0.342784	0.383298
C1087	C	0.902727	0.509901	0.508795
C1088	C	0.986182	0.490470	0.342635
C1089	C	0.915046	0.537777	0.535478
C1090	C	0.998940	0.462892	0.369539
C1091	C	0.916492	0.629735	0.534401
C1092	C	0.833690	0.370744	0.368082
C1093	C	0.969326	0.629794	0.575851
C1094	C	0.886645	0.369849	0.409271
C1095	C	0.862954	0.536328	0.575784
C1096	C	0.946963	0.463878	0.409798
C1097	C	0.848975	0.508360	0.550437
C1098	C	0.932553	0.491570	0.384251
C1099	C	0.869388	0.494757	0.516705
C1100	C	0.952611	0.505219	0.350213
C1101	C	0.977770	0.366440	0.488874
C1102	C	0.893839	0.633240	0.655224
C1103	C	0.855792	0.464825	0.490225
C1104	C	0.938681	0.534724	0.656369
H705	H	0.828846	0.334231	0.647833
H706	H	0.760780	0.666222	0.390867
H707	H	0.774214	0.550169	0.530878
H708	H	0.691656	0.450950	0.365009
H709	H	0.723385	0.618374	0.529520
H710	H	0.807441	0.382577	0.363295
H711	H	0.817790	0.618391	0.602920
H712	H	0.735413	0.381034	0.436266
H713	H	0.681243	0.547648	0.602203
H714	H	0.765459	0.452509	0.436350
H715	H	0.739651	0.501734	0.391755
H716	H	0.912375	0.666525	0.481038
H717	H	0.844021	0.666268	0.557840
H718	H	0.919567	0.500298	0.483094
H719	H	0.940880	0.550169	0.530878
H720	H	0.858323	0.450950	0.365009
H721	H	0.890051	0.618374	0.529520
H722	H	0.974107	0.382577	0.363295
H723	H	0.984457	0.618391	0.602920
H724	H	0.902080	0.381034	0.436266
H725	H	0.847910	0.547648	0.602203
H726	H	0.932126	0.452509	0.436350
H727	H	0.989557	0.497744	0.557834
H728	H	0.906317	0.501734	0.391755
H729	H	0.705706	0.349541	0.485145
H730	H	0.940002	0.632493	0.685877
H731	H	0.791947	0.480618	0.488967
H732	H	0.887552	0.528668	0.662826
H733	H	0.682660	0.375259	0.555380
H734	H	0.923949	0.625798	0.417017
H735	H	0.818429	0.455976	0.558169
H736	H	0.720426	0.528371	0.661915
N177	N	0.769479	0.617084	0.568276
N178	N	0.686910	0.382952	0.402017
N179	N	0.728847	0.550103	0.568613
N180	N	0.812937	0.450309	0.402680
N181	N	0.936146	0.617084	0.568276
N182	N	0.853576	0.382952	0.402017
N183	N	0.895514	0.550103	0.568613
N184	N	0.979603	0.450309	0.402680
Ni89	Ni	0.749001	0.583829	0.612109
Ni90	Ni	0.833324	0.416000	0.446393
Ni91	Ni	0.915667	0.583829	0.612109
Ni92	Ni	0.999991	0.416000	0.446393
O353	O	0.707593	0.449230	0.460958
O354	O	0.790403	0.550326	0.627097
O355	O	0.792543	0.382502	0.459059
O356	O	0.708366	0.617451	0.625420
O357	O	0.824356	0.452053	0.494331
O358	O	0.740379	0.547138	0.659959
O359	O	0.676280	0.378386	0.493693
O360	O	0.758895	0.620919	0.659800
O361	O	0.874260	0.449230	0.460958
O362	O	0.957069	0.550326	0.627097
O363	O	0.959210	0.382502	0.459059
O364	O	0.875033	0.617451	0.625420
O365	O	0.991023	0.452053	0.494331
O366	O	0.907046	0.547138	0.659959
O367	O	0.842947	0.378386	0.493693
O368	O	0.925562	0.620919	0.659800
S177	S	0.730245	0.324991	0.466440
S178	S	0.984334	0.678809	0.630970
S179	S	0.768676	0.506509	0.470328
S180	S	0.850076	0.493422	0.636908
S181	S	0.689435	0.342303	0.573010
S182	S	0.940761	0.655910	0.403276
S183	S	0.810554	0.489644	0.571774
S184	S	0.684781	0.495224	0.638711
C1105	C	0.762737	0.656683	0.840661
C1106	C	0.679460	0.343702	0.674103
C1107	C	0.796878	0.337257	0.848831
C1108	C	0.713415	0.662581	0.682049
C1109	C	0.817305	0.656734	0.883457
C1110	C	0.734173	0.342784	0.716631
C1111	C	0.736060	0.509901	0.842128
C1112	C	0.819515	0.490470	0.675968
C1113	C	0.748379	0.537777	0.868812
C1114	C	0.832273	0.462892	0.702872
C1115	C	0.749825	0.629735	0.867734
C1116	C	0.667023	0.370744	0.701416
C1117	C	0.802659	0.629794	0.909184
C1118	C	0.719978	0.369849	0.742604
C1119	C	0.696287	0.536328	0.909117
C1120	C	0.780297	0.463878	0.743131
C1121	C	0.682308	0.508360	0.883771
C1122	C	0.765886	0.491570	0.717585
C1123	C	0.702721	0.494757	0.850039
C1124	C	0.785944	0.505219	0.683546
C1125	C	0.811103	0.366440	0.822207
C1126	C	0.727172	0.633240	0.988557
C1127	C	0.689126	0.464825	0.823559
C1128	C	0.772014	0.534724	0.989702
C1129	C	0.929404	0.656683	0.840661
C1130	C	0.846126	0.343702	0.674103
C1131	C	0.963545	0.337257	0.848831
C1132	C	0.880081	0.662581	0.682049
C1133	C	0.983972	0.656734	0.883457
C1134	C	0.900840	0.342784	0.716631
C1135	C	0.902727	0.509901	0.842128
C1136	C	0.986182	0.490470	0.675968
C1137	C	0.915046	0.537777	0.868812
C1138	C	0.998940	0.462892	0.702872
C1139	C	0.916492	0.629735	0.867734
C1140	C	0.833690	0.370744	0.701416
C1141	C	0.969326	0.629794	0.909184
C1142	C	0.886645	0.369849	0.742604
C1143	C	0.862954	0.536328	0.909117
C1144	C	0.946963	0.463878	0.743131
C1145	C	0.848975	0.508360	0.883771
C1146	C	0.932553	0.491570	0.717585
C1147	C	0.869388	0.494757	0.850039
C1148	C	0.952611	0.505219	0.683546
C1149	C	0.977770	0.366440	0.822207
C1150	C	0.893839	0.633240	0.988557
C1151	C	0.855792	0.464825	0.823559
C1152	C	0.938681	0.534724	0.989702
H737	H	0.828846	0.334231	0.981166
H738	H	0.760780	0.666222	0.724201
H739	H	0.774214	0.550169	0.864212
H740	H	0.691656	0.450950	0.698343
H741	H	0.723385	0.618374	0.862853
H742	H	0.807441	0.382577	0.696629
H743	H	0.817790	0.618391	0.936254
H744	H	0.735413	0.381034	0.769599
H745	H	0.681243	0.547648	0.935536
H746	H	0.765459	0.452509	0.769684
H747	H	0.739651	0.501734	0.725088
H748	H	0.912375	0.666525	0.814371
H749	H	0.844021	0.666268	0.891173
H750	H	0.919567	0.500298	0.816427
H751	H	0.940880	0.550169	0.864212
H752	H	0.858323	0.450950	0.698343
H753	H	0.890051	0.618374	0.862853
H754	H	0.974107	0.382577	0.696629
H755	H	0.984457	0.618391	0.936254
H756	H	0.902080	0.381034	0.769599
H757	H	0.847910	0.547648	0.935536
H758	H	0.932126	0.452509	0.769684
H759	H	0.989557	0.497744	0.891167
H760	H	0.906317	0.501734	0.725088
H761	H	0.705706	0.349541	0.818478
H762	H	0.940002	0.632493	1.019210
H763	H	0.791947	0.480618	0.822300
H764	H	0.887552	0.528668	0.996159
H765	H	0.682660	0.375259	0.888714
H766	H	0.923949	0.625798	0.750350
H767	H	0.818429	0.455976	0.891502
H768	H	0.720426	0.528371	0.995249
N185	N	0.769479	0.617084	0.901609
N186	N	0.686910	0.382952	0.735351
N187	N	0.728847	0.550103	0.901946
N188	N	0.812937	0.450309	0.736014
N189	N	0.936146	0.617084	0.901609
N190	N	0.853576	0.382952	0.735351
N191	N	0.895514	0.550103	0.901946
N192	N	0.979603	0.450309	0.736014
Ni93	Ni	0.749001	0.583829	0.945442
Ni94	Ni	0.833324	0.416000	0.779726
Ni95	Ni	0.915667	0.583829	0.945442
Ni96	Ni	0.999991	0.416000	0.779726
O369	O	0.707593	0.449230	0.794291
O370	O	0.790403	0.550326	0.960431
O371	O	0.792543	0.382502	0.792393
O372	O	0.708366	0.617451	0.958754
O373	O	0.824356	0.452053	0.827665
O374	O	0.740379	0.547138	0.993292
O375	O	0.676280	0.378386	0.827026
O376	O	0.758895	0.620919	0.993133
O377	O	0.874260	0.449230	0.794291
O378	O	0.957069	0.550326	0.960431
O379	O	0.959210	0.382502	0.792393
O380	O	0.875033	0.617451	0.958754
O381	O	0.991023	0.452053	0.827665
O382	O	0.907046	0.547138	0.993292
O383	O	0.842947	0.378386	0.827026
O384	O	0.925562	0.620919	0.993133
S185	S	0.730245	0.324991	0.799773
S186	S	0.984334	0.678809	0.964303
S187	S	0.768676	0.506509	0.803661
S188	S	0.850076	0.493422	0.970241
S189	S	0.689435	0.342303	0.906344
S190	S	0.940761	0.655910	0.736609
S191	S	0.810554	0.489644	0.905108
S192	S	0.684781	0.495224	0.972044
C1153	C	0.762737	0.990017	0.173995
C1154	C	0.679460	0.677035	0.007436
C1155	C	0.796878	0.670590	0.182164
C1156	C	0.713415	0.995915	0.015382
C1157	C	0.817305	0.990067	0.216790
C1158	C	0.734173	0.676118	0.049964
C1159	C	0.736060	0.843235	0.175461
C1160	C	0.819515	0.823803	0.009301
C1161	C	0.748379	0.871110	0.202145
C1162	C	0.832273	0.796226	0.036206
C1163	C	0.749825	0.963069	0.201068
C1164	C	0.667023	0.704077	0.034749
C1165	C	0.802659	0.963128	0.242517
C1166	C	0.719978	0.703182	0.075937
C1167	C	0.696287	0.869661	0.242451
C1168	C	0.780297	0.797211	0.076465
C1169	C	0.682308	0.841693	0.217104
C1170	C	0.765886	0.824904	0.050918
C1171	C	0.702721	0.828090	0.183372
C1172	C	0.785944	0.838552	0.016879
C1173	C	0.811103	0.699773	0.155540
C1174	C	0.727172	0.966573	0.321891
C1175	C	0.689126	0.798158	0.156892
C1176	C	0.772014	0.868057	0.323036
C1177	C	0.929404	0.990017	0.173995
C1178	C	0.846126	0.677035	0.007436
C1179	C	0.963545	0.670590	0.182164
C1180	C	0.880081	0.995915	0.015382
C1181	C	0.983972	0.990067	0.216790
C1182	C	0.900840	0.676118	0.049964
C1183	C	0.902727	0.843235	0.175461
C1184	C	0.986182	0.823803	0.009301
C1185	C	0.915046	0.871110	0.202145
C1186	C	0.998940	0.796226	0.036206
C1187	C	0.916492	0.963069	0.201068
C1188	C	0.833690	0.704077	0.034749
C1189	C	0.969326	0.963128	0.242517
C1190	C	0.886645	0.703182	0.075937
C1191	C	0.862954	0.869661	0.242451
C1192	C	0.946963	0.797211	0.076465
C1193	C	0.848975	0.841693	0.217104
C1194	C	0.932553	0.824904	0.050918
C1195	C	0.869388	0.828090	0.183372
C1196	C	0.952611	0.838552	0.016879
C1197	C	0.977770	0.699773	0.155540
C1198	C	0.893839	0.966573	0.321891
C1199	C	0.855792	0.798158	0.156892
C1200	C	0.938681	0.868057	0.323036
H769	H	0.828846	0.667564	0.314500
H770	H	0.760780	0.999555	0.057534
H771	H	0.774214	0.883502	0.197545
H772	H	0.691656	0.784284	0.031676
H773	H	0.723385	0.951708	0.196187
H774	H	0.807441	0.715911	0.029962
H775	H	0.817790	0.951724	0.269587
H776	H	0.735413	0.714368	0.102932
H777	H	0.681243	0.880981	0.268869
H778	H	0.765459	0.785842	0.103017
H779	H	0.739651	0.835067	0.058421
H780	H	0.912375	0.999858	0.147704
H781	H	0.844021	0.999602	0.224507
H782	H	0.919567	0.833632	0.149761
H783	H	0.940880	0.883502	0.197545
H784	H	0.858323	0.784284	0.031676
H785	H	0.890051	0.951708	0.196187
H786	H	0.974107	0.715911	0.029962
H787	H	0.984457	0.951724	0.269587
H788	H	0.902080	0.714368	0.102932
H789	H	0.847910	0.880981	0.268869
H790	H	0.932126	0.785842	0.103017
H791	H	0.989557	0.831077	0.224501
H792	H	0.906317	0.835067	0.058421
H793	H	0.705706	0.682874	0.151811
H794	H	0.940002	0.965827	0.352543
H795	H	0.791947	0.813952	0.155634
H796	H	0.887552	0.862002	0.329492
H797	H	0.682660	0.708592	0.222047
H798	H	0.923949	0.959131	0.083683
H799	H	0.818429	0.789309	0.224836
H800	H	0.720426	0.861705	0.328582
N193	N	0.769479	0.950418	0.234943
N194	N	0.686910	0.716286	0.068684
N195	N	0.728847	0.883437	0.235279
N196	N	0.812937	0.783643	0.069347
N197	N	0.936146	0.950418	0.234943
N198	N	0.853576	0.716286	0.068684
N199	N	0.895514	0.883437	0.235279
N200	N	0.979603	0.783643	0.069347
Ni97	Ni	0.749001	0.917162	0.278775
Ni98	Ni	0.833324	0.749333	0.113059
Ni99	Ni	0.915667	0.917162	0.278775
Ni100	Ni	0.999991	0.749333	0.113059
O385	O	0.707593	0.782563	0.127624
O386	O	0.790403	0.883659	0.293764
O387	O	0.792543	0.715836	0.125726
O388	O	0.708366	0.950784	0.292087
O389	O	0.824356	0.785387	0.160998
O390	O	0.740379	0.880472	0.326626
O391	O	0.676280	0.711719	0.160359
O392	O	0.758895	0.954253	0.326466
O393	O	0.874260	0.782563	0.127624
O394	O	0.957069	0.883659	0.293764
O395	O	0.959210	0.715836	0.125726
O396	O	0.875033	0.950784	0.292087
O397	O	0.991023	0.785387	0.160998
O398	O	0.907046	0.880472	0.326626
O399	O	0.842947	0.711719	0.160359
O400	O	0.925562	0.954253	0.326466
S193	S	0.730245	0.658324	0.133106
S194	S	0.984334	1.012142	0.297637
S195	S	0.768676	0.839843	0.136995
S196	S	0.850076	0.826755	0.303575
S197	S	0.689435	0.675636	0.239677
S198	S	0.940761	0.989243	0.069942
S199	S	0.810554	0.822978	0.238441
S200	S	0.684781	0.828558	0.305378
C1201	C	0.762737	0.990017	0.507328
C1202	C	0.679460	0.677035	0.340769
C1203	C	0.796878	0.670590	0.515497
C1204	C	0.713415	0.995915	0.348715
C1205	C	0.817305	0.990067	0.550124
C1206	C	0.734173	0.676118	0.383298
C1207	C	0.736060	0.843235	0.508795
C1208	C	0.819515	0.823803	0.342635
C1209	C	0.748379	0.871110	0.535478
C1210	C	0.832273	0.796226	0.369539
C1211	C	0.749825	0.963069	0.534401
C1212	C	0.667023	0.704077	0.368082
C1213	C	0.802659	0.963128	0.575851
C1214	C	0.719978	0.703182	0.409271
C1215	C	0.696287	0.869661	0.575784
C1216	C	0.780297	0.797211	0.409798
C1217	C	0.682308	0.841693	0.550437
C1218	C	0.765886	0.824904	0.384251
C1219	C	0.702721	0.828090	0.516705
C1220	C	0.785944	0.838552	0.350213
C1221	C	0.811103	0.699773	0.488874
C1222	C	0.727172	0.966573	0.655224
C1223	C	0.689126	0.798158	0.490225
C1224	C	0.772014	0.868057	0.656369
C1225	C	0.929404	0.990017	0.507328
C1226	C	0.846126	0.677035	0.340769
C1227	C	0.963545	0.670590	0.515497
C1228	C	0.880081	0.995915	0.348715
C1229	C	0.983972	0.990067	0.550124
C1230	C	0.900840	0.676118	0.383298
C1231	C	0.902727	0.843235	0.508795
C1232	C	0.986182	0.823803	0.342635
C1233	C	0.915046	0.871110	0.535478
C1234	C	0.998940	0.796226	0.369539
C1235	C	0.916492	0.963069	0.534401
C1236	C	0.833690	0.704077	0.368082
C1237	C	0.969326	0.963128	0.575851
C1238	C	0.886645	0.703182	0.409271
C1239	C	0.862954	0.869661	0.575784
C1240	C	0.946963	0.797211	0.409798
C1241	C	0.848975	0.841693	0.550437
C1242	C	0.932553	0.824904	0.384251
C1243	C	0.869388	0.828090	0.516705
C1244	C	0.952611	0.838552	0.350213
C1245	C	0.977770	0.699773	0.488874
C1246	C	0.893839	0.966573	0.655224
C1247	C	0.855792	0.798158	0.490225
C1248	C	0.938681	0.868057	0.656369
H801	H	0.828846	0.667564	0.647833
H802	H	0.760780	0.999555	0.390867
H803	H	0.774214	0.883502	0.530878
H804	H	0.691656	0.784284	0.365009
H805	H	0.723385	0.951708	0.529520
H806	H	0.807441	0.715911	0.363295
H807	H	0.817790	0.951724	0.602920
H808	H	0.735413	0.714368	0.436266
H809	H	0.681243	0.880981	0.602203
H810	H	0.765459	0.785842	0.436350
H811	H	0.739651	0.835067	0.391755
H812	H	0.912375	0.999858	0.481038
H813	H	0.844021	0.999602	0.557840
H814	H	0.919567	0.833632	0.483094
H815	H	0.940880	0.883502	0.530878
H816	H	0.858323	0.784284	0.365009
H817	H	0.890051	0.951708	0.529520
H818	H	0.974107	0.715911	0.363295
H819	H	0.984457	0.951724	0.602920
H820	H	0.902080	0.714368	0.436266
H821	H	0.847910	0.880981	0.602203
H822	H	0.932126	0.785842	0.436350
H823	H	0.989557	0.831077	0.557834
H824	H	0.906317	0.835067	0.391755
H825	H	0.705706	0.682874	0.485145
H826	H	0.940002	0.965827	0.685877
H827	H	0.791947	0.813952	0.488967
H828	H	0.887552	0.862002	0.662826
H829	H	0.682660	0.708592	0.555380
H830	H	0.923949	0.959131	0.417017
H831	H	0.818429	0.789309	0.558169
H832	H	0.720426	0.861705	0.661915
N201	N	0.769479	0.950418	0.568276
N202	N	0.686910	0.716286	0.402017
N203	N	0.728847	0.883437	0.568613
N204	N	0.812937	0.783643	0.402680
N205	N	0.936146	0.950418	0.568276
N206	N	0.853576	0.716286	0.402017
N207	N	0.895514	0.883437	0.568613
N208	N	0.979603	0.783643	0.402680
Ni101	Ni	0.749001	0.917162	0.612109
Ni102	Ni	0.833324	0.749333	0.446393
Ni103	Ni	0.915667	0.917162	0.612109
Ni104	Ni	0.999991	0.749333	0.446393
O401	O	0.707593	0.782563	0.460958
O402	O	0.790403	0.883659	0.627097
O403	O	0.792543	0.715836	0.459059
O404	O	0.708366	0.950784	0.625420
O405	O	0.824356	0.785387	0.494331
O406	O	0.740379	0.880472	0.659959
O407	O	0.676280	0.711719	0.493693
O408	O	0.758895	0.954253	0.659800
O409	O	0.874260	0.782563	0.460958
O410	O	0.957069	0.883659	0.627097
O411	O	0.959210	0.715836	0.459059
O412	O	0.875033	0.950784	0.625420
O413	O	0.991023	0.785387	0.494331
O414	O	0.907046	0.880472	0.659959
O415	O	0.842947	0.711719	0.493693
O416	O	0.925562	0.954253	0.659800
S201	S	0.730245	0.658324	0.466440
S202	S	0.984334	1.012142	0.630970
S203	S	0.768676	0.839843	0.470328
S204	S	0.850076	0.826755	0.636908
S205	S	0.689435	0.675636	0.573010
S206	S	0.940761	0.989243	0.403276
S207	S	0.810554	0.822978	0.571774
S208	S	0.684781	0.828558	0.638711
C1249	C	0.762737	0.990017	0.840661
C1250	C	0.679460	0.677035	0.674103
C1251	C	0.796878	0.670590	0.848831
C1252	C	0.713415	0.995915	0.682049
C1253	C	0.817305	0.990067	0.883457
C1254	C	0.734173	0.676118	0.716631
C1255	C	0.736060	0.843235	0.842128
C1256	C	0.819515	0.823803	0.675968
C1257	C	0.748379	0.871110	0.868812
C1258	C	0.832273	0.796226	0.702872
C1259	C	0.749825	0.963069	0.867734
C1260	C	0.667023	0.704077	0.701416
C1261	C	0.802659	0.963128	0.909184
C1262	C	0.719978	0.703182	0.742604
C1263	C	0.696287	0.869661	0.909117
C1264	C	0.780297	0.797211	0.743131
C1265	C	0.682308	0.841693	0.883771
C1266	C	0.765886	0.824904	0.717585
C1267	C	0.702721	0.828090	0.850039
C1268	C	0.785944	0.838552	0.683546
C1269	C	0.811103	0.699773	0.822207
C1270	C	0.727172	0.966573	0.988557
C1271	C	0.689126	0.798158	0.823559
C1272	C	0.772014	0.868057	0.989702
C1273	C	0.929404	0.990017	0.840661
C1274	C	0.846126	0.677035	0.674103
C1275	C	0.963545	0.670590	0.848831
C1276	C	0.880081	0.995915	0.682049
C1277	C	0.983972	0.990067	0.883457
C1278	C	0.900840	0.676118	0.716631
C1279	C	0.902727	0.843235	0.842128
C1280	C	0.986182	0.823803	0.675968
C1281	C	0.915046	0.871110	0.868812
C1282	C	0.998940	0.796226	0.702872
C1283	C	0.916492	0.963069	0.867734
C1284	C	0.833690	0.704077	0.701416
C1285	C	0.969326	0.963128	0.909184
C1286	C	0.886645	0.703182	0.742604
C1287	C	0.862954	0.869661	0.909117
C1288	C	0.946963	0.797211	0.743131
C1289	C	0.848975	0.841693	0.883771
C1290	C	0.932553	0.824904	0.717585
C1291	C	0.869388	0.828090	0.850039
C1292	C	0.952611	0.838552	0.683546
C1293	C	0.977770	0.699773	0.822207
C1294	C	0.893839	0.966573	0.988557
C1295	C	0.855792	0.798158	0.823559
C1296	C	0.938681	0.868057	0.989702
H833	H	0.828846	0.667564	0.981166
H834	H	0.760780	0.999555	0.724201
H835	H	0.774214	0.883502	0.864212
H836	H	0.691656	0.784284	0.698343
H837	H	0.723385	0.951708	0.862853
H838	H	0.807441	0.715911	0.696629
H839	H	0.817790	0.951724	0.936254
H840	H	0.735413	0.714368	0.769599
H841	H	0.681243	0.880981	0.935536
H842	H	0.765459	0.785842	0.769684
H843	H	0.739651	0.835067	0.725088
H844	H	0.912375	0.999858	0.814371
H845	H	0.844021	0.999602	0.891173
H846	H	0.919567	0.833632	0.816427
H847	H	0.940880	0.883502	0.864212
H848	H	0.858323	0.784284	0.698343
H849	H	0.890051	0.951708	0.862853
H850	H	0.974107	0.715911	0.696629
H851	H	0.984457	0.951724	0.936254
H852	H	0.902080	0.714368	0.769599
H853	H	0.847910	0.880981	0.935536
H854	H	0.932126	0.785842	0.769684
H855	H	0.989557	0.831077	0.891167
H856	H	0.906317	0.835067	0.725088
H857	H	0.705706	0.682874	0.818478
H858	H	0.940002	0.965827	1.019210
H859	H	0.791947	0.813952	0.822300
H860	H	0.887552	0.862002	0.996159
H861	H	0.682660	0.708592	0.888714
H862	H	0.923949	0.959131	0.750350
H863	H	0.818429	0.789309	0.891502
H864	H	0.720426	0.861705	0.995249
N209	N	0.769479	0.950418	0.901609
N210	N	0.686910	0.716286	0.735351
N211	N	0.728847	0.883437	0.901946
N212	N	0.812937	0.783643	0.736014
N213	N	0.936146	0.950418	0.901609
N214	N	0.853576	0.716286	0.735351
N215	N	0.895514	0.883437	0.901946
N216	N	0.979603	0.783643	0.736014
Ni105	Ni	0.749001	0.917162	0.945442
Ni106	Ni	0.833324	0.749333	0.779726
Ni107	Ni	0.915667	0.917162	0.945442
Ni108	Ni	0.999991	0.749333	0.779726
O417	O	0.707593	0.782563	0.794291
O418	O	0.790403	0.883659	0.960431
O419	O	0.792543	0.715836	0.792393
O420	O	0.708366	0.950784	0.958754
O421	O	0.824356	0.785387	0.827665
O422	O	0.740379	0.880472	0.993292
O423	O	0.676280	0.711719	0.827026
O424	O	0.758895	0.954253	0.993133
O425	O	0.874260	0.782563	0.794291
O426	O	0.957069	0.883659	0.960431
O427	O	0.959210	0.715836	0.792393
O428	O	0.875033	0.950784	0.958754
O429	O	0.991023	0.785387	0.827665
O430	O	0.907046	0.880472	0.993292
O431	O	0.842947	0.711719	0.827026
O432	O	0.925562	0.954253	0.993133
S209	S	0.730245	0.658324	0.799773
S210	S	0.984334	1.012142	0.964303
S211	S	0.768676	0.839843	0.803661
S212	S	0.850076	0.826755	0.970241
S213	S	0.689435	0.675636	0.906344
S214	S	0.940761	0.989243	0.736609
S215	S	0.810554	0.822978	0.905108
S216	S	0.684781	0.828558	0.972044
