data_NiPyC2_relax_meta_functionalized_F_pbesol-relax_in_PM
_symmetry_space_group_name_H-M	'P1'
_cell_length_a	6.252808
_cell_length_b	12.523418
_cell_length_c	10.276816
_cell_angle_alpha	90.000000
_cell_angle_beta	91.269007
_cell_angle_gamma	90.000000
_symmetry_Int_Tables_number 1

loop_
_symmetry_equiv_pos_as_xyz
'x,y,z'

loop_
_atom_site_label
_atom_site_type_symbol
_atom_site_fract_x
_atom_site_fract_y
_atom_site_fract_z
C1	C	0.576463	0.963378	0.524527
C2	C	0.076496	0.037235	0.024145
C3	C	0.781466	0.008619	0.543854
C4	C	0.280955	0.991009	0.042475
C5	C	0.904863	0.964482	0.645109
C6	C	0.406450	0.034973	0.142969
C7	C	0.417209	0.528903	0.529627
C8	C	0.918515	0.468157	0.033559
C9	C	0.487221	0.614990	0.606700
C10	C	0.990542	0.384394	0.114974
C11	C	0.499052	0.883236	0.607405
C12	C	0.001389	0.117531	0.107687
C13	C	0.822701	0.882786	0.723390
C14	C	0.326539	0.116853	0.221899
C15	C	0.173040	0.614323	0.724812
C16	C	0.675205	0.392261	0.230700
C17	C	0.094541	0.527887	0.648805
C18	C	0.596107	0.475304	0.151340
C19	C	0.217611	0.482426	0.549555
C20	C	0.717360	0.516592	0.050381
C21	C	0.862976	0.097810	0.465224
C22	C	0.359544	0.900985	0.963818
C23	C	0.136445	0.392532	0.471026
C24	C	0.636447	0.605398	0.968841
F1	F	0.447099	-0.006862	0.429511
F2	F	0.945172	1.008164	0.929777
F3	F	0.905964	0.489981	0.676402
F4	F	0.049265	0.497885	0.942803
H1	H	0.065297	0.993687	0.666476
H2	H	0.567038	1.005468	0.163283
H3	H	0.521546	0.498768	0.454875
H4	H	0.641358	0.652505	0.593124
H5	H	0.146779	0.348799	0.099664
H6	H	0.338021	0.851902	0.592171
H7	H	0.840613	0.149406	0.093270
H8	H	0.917923	0.848482	0.802141
H9	H	0.423432	0.150990	0.300047
H10	H	0.076280	0.646124	0.802443
H11	H	0.581720	0.359994	0.309393
H12	H	0.438630	0.507883	0.170175
N1	N	0.620624	0.846165	0.706266
N2	N	0.124407	0.153908	0.206335
N3	N	0.367693	0.654289	0.704366
N4	N	0.870887	0.348813	0.212297
Ni1	Ni	0.493924	0.751023	0.837156
Ni2	Ni	0.999787	0.247012	0.340036
O1	O	0.248139	0.346817	0.382900
O2	O	0.745412	0.653796	0.882072
O3	O	0.754156	0.146098	0.374977
O4	O	0.248754	0.853159	0.874159
O5	O	0.948193	0.353599	0.482850
O6	O	0.445416	0.641563	0.980212
O7	O	0.052618	0.134876	0.483074
O8	O	0.548248	0.862589	0.981062
