data_NiPyC2_relax_sc211_meta_functionalized_O-CH3_pbesol_relax_frozen_parent_atoms_PM
_symmetry_space_group_name_H-M	'P1'
_cell_length_a	12.505617
_cell_length_b	12.523412
_cell_length_c	10.276810
_cell_angle_alpha	90.000000
_cell_angle_beta	91.268973
_cell_angle_gamma	90.000000
_symmetry_Int_Tables_number 1

loop_
_symmetry_equiv_pos_as_xyz
'x,y,z'

loop_
_atom_site_label
_atom_site_type_symbol
_atom_site_fract_x
_atom_site_fract_y
_atom_site_fract_z
C1	C	0.288212	0.970050	0.521984
C2	C	0.038379	0.031106	0.022308
C3	C	0.390634	0.011770	0.546492
C4	C	0.140244	0.987744	0.046146
C5	C	0.451915	0.970202	0.650371
C6	C	0.202520	0.028353	0.149893
C7	C	0.208181	0.529704	0.526384
C8	C	0.458545	0.471409	0.027904
C9	C	0.245137	0.613331	0.606435
C10	C	0.496819	0.388677	0.108617
C11	C	0.249476	0.889206	0.603203
C12	C	0.001069	0.112232	0.104247
C13	C	0.407977	0.889383	0.727552
C14	C	0.159935	0.109547	0.227812
C15	C	0.088862	0.608983	0.727352
C16	C	0.340890	0.391633	0.229394
C17	C	0.046925	0.525079	0.651312
C18	C	0.297658	0.474711	0.152754
C19	C	0.108164	0.484270	0.550116
C20	C	0.357832	0.515656	0.050638
C21	C	0.433310	0.099319	0.466621
C22	C	0.181517	0.899720	0.965672
C23	C	0.067378	0.394474	0.470676
C24	C	0.316043	0.604172	0.969107
C25	C	0.788212	0.970050	0.521984
C26	C	0.538379	0.031106	0.022308
C27	C	0.890634	0.011770	0.546492
C28	C	0.640244	0.987744	0.046146
C29	C	0.951915	0.970202	0.650371
C30	C	0.702520	0.028353	0.149893
C31	C	0.708182	0.529704	0.526384
C32	C	0.958546	0.471409	0.027904
C33	C	0.745137	0.613331	0.606435
C34	C	0.996819	0.388677	0.108617
C35	C	0.749476	0.889206	0.603203
C36	C	0.501069	0.112232	0.104247
C37	C	0.907977	0.889383	0.727552
C38	C	0.659934	0.109547	0.227812
C39	C	0.588862	0.608983	0.727352
C40	C	0.840890	0.391633	0.229394
C41	C	0.546925	0.525079	0.651312
C42	C	0.797658	0.474711	0.152754
C43	C	0.608164	0.484270	0.550116
C44	C	0.857832	0.515656	0.050638
C45	C	0.933310	0.099319	0.466621
C46	C	0.681517	0.899720	0.965672
C47	C	0.567377	0.394474	0.470676
C48	C	0.816043	0.604172	0.969107
C49	C	0.575632	1.110480	0.723710
C50	C	0.887178	0.078473	0.891627
C51	C	0.359557	0.573183	0.403647
C52	C	0.604378	0.421631	0.898647
C53	C	0.633172	0.928425	0.396017
C54	C	0.842226	-0.102059	0.214640
C55	C	0.863943	0.565686	0.409051
C56	C	0.661162	0.607637	0.213318
H1	H	0.237124	0.999575	0.443113
H2	H	0.486538	0.002692	0.943499
H3	H	0.032063	0.998805	0.673520
H4	H	0.282340	0.998665	0.172602
H5	H	0.008641	0.500397	0.950548
H6	H	0.322641	0.650506	0.592635
H7	H	0.074968	0.352851	0.095028
H8	H	0.170154	0.855123	0.588560
H9	H	0.422322	0.147732	0.089886
H10	H	0.453370	0.855173	0.808761
H11	H	0.206239	0.143103	0.308797
H12	H	0.043729	0.642944	0.806608
H13	H	0.296378	0.357526	0.309051
H14	H	0.468672	0.493231	0.673502
H15	H	0.218952	0.505201	0.175264
H16	H	0.822641	0.650506	0.592635
H17	H	0.574968	0.352851	0.095028
H18	H	0.670154	0.855123	0.588560
H19	H	0.922322	0.147732	0.089886
H20	H	0.953370	0.855173	0.808761
H21	H	0.706240	0.143103	0.308797
H22	H	0.543729	0.642944	0.806608
H23	H	0.796378	0.357526	0.309051
H24	H	0.968672	0.493231	0.673502
H25	H	0.642734	0.135052	0.664191
H26	H	0.506322	1.162800	0.711081
H27	H	0.602643	1.106869	0.826445
H28	H	0.853611	1.052794	0.798666
H29	H	0.828559	0.066059	0.967340
H30	H	0.913337	0.161740	0.886133
H31	H	0.395876	0.543194	0.316153
H32	H	0.333970	0.656170	0.389797
H33	H	0.416670	0.564706	0.485206
H34	H	0.636358	0.447231	0.806553
H35	H	0.575516	0.339190	0.891385
H36	H	0.665721	0.431184	0.975032
H37	H	0.595823	-0.041592	0.307041
H38	H	0.576152	0.935625	0.474351
H39	H	0.660150	0.845875	0.383792
H40	H	0.904428	0.876896	0.146177
H41	H	0.878741	-0.092526	0.312297
H42	H	0.777137	-0.160095	0.213954
H43	H	0.904159	0.530031	0.327318
H44	H	0.836612	0.646885	0.386364
H45	H	0.919494	0.564768	0.492740
H46	H	0.595966	0.625557	0.144143
H47	H	0.725659	0.666033	0.208069
H48	H	0.628972	0.602765	0.311887
N1	N	0.308437	0.851253	0.704828
N2	N	0.060729	0.148857	0.206052
N3	N	0.186542	0.650310	0.705838
N4	N	0.438810	0.350928	0.208041
N5	N	0.808437	0.851253	0.704828
N6	N	0.560729	0.148857	0.206052
N7	N	0.686543	0.650310	0.705838
N8	N	0.938810	0.350928	0.208041
Ni1	Ni	0.247002	0.751486	0.836326
Ni2	Ni	0.499972	0.247999	0.339178
Ni3	Ni	0.747002	0.751486	0.836326
Ni4	Ni	0.999972	0.247999	0.339178
O1	O	0.122778	0.347689	0.382873
O2	O	0.371208	0.650977	0.881292
O3	O	0.377630	0.147507	0.377178
O4	O	0.125098	0.852352	0.876261
O5	O	0.473069	0.356160	0.482994
O6	O	0.221137	0.641415	0.979877
O7	O	0.028840	0.135158	0.481078
O8	O	0.276686	0.862758	0.979399
O9	O	0.622779	0.347689	0.382873
O10	O	0.871208	0.650977	0.881292
O11	O	0.877630	0.147507	0.377178
O12	O	0.625098	0.852352	0.876261
O13	O	0.973069	0.356160	0.482994
O14	O	0.721137	0.641415	0.979877
O15	O	0.528840	0.135158	0.481078
O16	O	0.776686	0.862758	0.979399
O17	O	0.549342	0.001346	0.690753
O18	O	0.980006	1.010303	0.917053
O19	O	0.266058	0.506384	0.424662
O20	O	0.514502	0.492405	0.923584
O21	O	0.725267	-0.003143	0.422876
O22	O	0.803269	1.002959	0.180914
O23	O	0.772058	0.498338	0.433660
O24	O	0.699101	0.501437	0.186805
