data_NiPyC2_relax_sc211_ortho_functionalized_OH_pbesol_relax_PM
_symmetry_space_group_name_H-M	'P1'
_cell_length_a	12.505617
_cell_length_b	12.523412
_cell_length_c	10.276810
_cell_angle_alpha	90.000000
_cell_angle_beta	91.268973
_cell_angle_gamma	90.000000
_symmetry_Int_Tables_number 1

loop_
_symmetry_equiv_pos_as_xyz
'x,y,z'

loop_
_atom_site_label
_atom_site_type_symbol
_atom_site_fract_x
_atom_site_fract_y
_atom_site_fract_z
C1	C	0.300526	0.980554	0.539876
C2	C	0.015591	0.014018	0.036675
C3	C	0.404997	0.012948	0.573024
C4	C	0.121628	0.978241	0.048462
C5	C	0.458412	0.965174	0.677412
C6	C	0.190881	0.028208	0.136557
C7	C	0.209278	0.519889	0.525758
C8	C	0.453558	0.477280	0.024045
C9	C	0.242743	0.607724	0.603723
C10	C	0.493580	0.392377	0.102564
C11	C	0.253751	0.898176	0.611775
C12	C	-0.017169	0.099273	0.115088
C13	C	0.406732	0.881348	0.744769
C14	C	0.152430	0.114863	0.210961
C15	C	0.083472	0.605669	0.717471
C16	C	0.340554	0.393390	0.227299
C17	C	0.043930	0.520620	0.641866
C18	C	0.294444	0.475162	0.151326
C19	C	0.108522	0.477438	0.545460
C20	C	0.352761	0.518043	0.048837
C21	C	0.459841	0.096427	0.496693
C22	C	0.163321	0.890904	0.968448
C23	C	0.066388	0.389749	0.465402
C24	C	0.307797	0.604864	0.968113
C25	C	0.785519	0.981298	0.526837
C26	C	0.555744	0.029069	0.024628
C27	C	0.888455	0.020005	0.547651
C28	C	0.658715	0.992225	0.051924
C29	C	0.955357	0.974329	0.643398
C30	C	0.715003	0.033440	0.160004
C31	C	0.714821	0.522700	0.527401
C32	C	0.957772	0.478266	0.024716
C33	C	0.750597	0.611128	0.602401
C34	C	0.991343	0.390022	0.101933
C35	C	0.751997	0.893610	0.602130
C36	C	0.511526	0.107945	0.106593
C37	C	0.915539	0.890518	0.718049
C38	C	0.667474	0.113462	0.234853
C39	C	0.595593	0.608374	0.724937
C40	C	0.835868	0.396322	0.221936
C41	C	0.553917	0.522748	0.651986
C42	C	0.795629	0.481556	0.146441
C43	C	0.615103	0.479807	0.552022
C44	C	0.858459	0.523011	0.047273
C45	C	0.928032	0.107692	0.468494
C46	C	0.705851	0.909011	0.969427
C47	C	0.573575	0.391805	0.471773
C48	C	0.819047	0.611807	0.966480
H1	H	0.255675	1.017584	0.460434
H2	H	0.506496	-0.001771	0.945008
H3	H	0.036045	1.003281	0.661732
H4	H	0.274280	1.005844	0.148373
H5	H	0.263757	0.490447	0.452952
H6	H	0.010928	0.506395	0.949871
H7	H	0.173163	0.869669	0.588990
H8	H	0.036196	0.639897	0.794760
H9	H	0.298446	0.360204	0.309371
H10	H	0.475571	0.491620	0.673914
H11	H	0.215342	0.503934	0.174005
H12	H	0.729317	1.014314	0.455615
H13	H	0.957743	-0.022934	0.970696
H14	H	0.539104	0.986559	0.708107
H15	H	0.794167	1.005152	0.187813
H16	H	0.766942	0.492638	0.452546
H17	H	0.503685	0.506795	0.946860
H18	H	0.901544	0.130036	0.108551
H19	H	0.964073	0.854229	0.795391
H20	H	0.710493	0.149120	0.316986
H21	H	0.551169	0.643268	0.804260
H22	H	0.789791	0.363275	0.301043
H23	H	0.964739	0.489528	0.659172
H24	H	0.717487	0.513992	0.166616
H25	H	0.418579	0.770710	0.871178
H26	H	0.185259	0.223935	0.333448
H27	H	0.344024	0.712229	0.637487
H28	H	0.603299	0.294850	0.135274
H29	H	0.648458	0.791227	0.634563
H30	H	0.393087	0.192447	0.145493
H31	H	0.854872	0.715048	0.630027
H32	H	0.088065	0.280822	0.128832
N1	N	0.304667	0.848258	0.711506
N2	N	0.048045	0.148804	0.202190
N3	N	0.180279	0.648579	0.700138
N4	N	0.437358	0.351456	0.204622
N5	N	0.816884	0.850177	0.698523
N6	N	0.568287	0.151176	0.209973
N7	N	0.691223	0.653247	0.701573
N8	N	0.931476	0.351616	0.202210
Ni1	Ni	0.231837	0.749213	0.835976
Ni2	Ni	0.505211	0.250848	0.339870
Ni3	Ni	0.756962	0.756442	0.836073
Ni4	Ni	0.988078	0.249896	0.338199
O1	O	0.121423	0.341259	0.377991
O2	O	0.363961	0.653069	0.880966
O3	O	0.406796	0.146409	0.405008
O4	O	0.107780	0.841633	0.879836
O5	O	0.478959	0.353901	0.483390
O6	O	0.211399	0.636763	0.976133
O7	O	0.025190	0.140074	0.475184
O8	O	0.260083	0.857820	0.980165
O9	O	0.628404	0.346869	0.381654
O10	O	0.875490	0.655025	0.876798
O11	O	0.867984	0.157848	0.384913
O12	O	0.654345	0.871851	0.868741
O13	O	0.969564	0.358019	0.475378
O14	O	0.725521	0.652418	0.977804
O15	O	0.556157	0.121903	0.514811
O16	O	0.797207	0.866282	0.989188
O17	O	0.459259	0.833771	0.838168
O18	O	0.221291	0.165719	0.285124
O19	O	0.336080	0.649659	0.579623
O20	O	0.587480	0.353566	0.073911
O21	O	0.657365	0.853466	0.576583
O22	O	0.413473	0.139271	0.079989
O23	O	0.842707	0.652814	0.572381
O24	O	0.082264	0.345046	0.073266
