data_NiPyC2_relax_NiPyC2_relax_aligned_CH2-CH3_NiPyC2_relax_aligned_CH2-CH3_NiPyC2_relax_aligned_CH2-CH3_NiPyC2_relax_aligned_CH2-CH3_NiPyC2_relax_aligned_CH2-CH3_NiPyC2_relax_aligned_CH2-CH3_NiPyC2_relax_aligned_CH2-CH3_NiPyC2_relax_aligned_CH2-CH3_PM
_symmetry_space_group_name_H-M	'P1'
_cell_length_a	12.505600
_cell_length_b	12.523400
_cell_length_c	10.276800
_cell_angle_alpha	90.000000
_cell_angle_beta	91.269000
_cell_angle_gamma	90.000000
_symmetry_Int_Tables_number 1

loop_
_symmetry_equiv_pos_as_xyz
'x,y,z'

loop_
_atom_site_label
_atom_site_type_symbol
_atom_site_fract_x
_atom_site_fract_y
_atom_site_fract_z
Ni1	Ni	0.247002	0.751486	0.836326
Ni2	Ni	0.499972	0.247999	0.339178
O1	O	0.122778	0.347689	0.382873
O2	O	0.371208	0.650977	0.881292
O3	O	0.377630	0.147507	0.377178
O4	O	0.125098	0.852352	0.876261
O5	O	0.473069	0.356160	0.482994
O6	O	0.221137	0.641415	0.979877
O7	O	0.028840	0.135158	0.481078
O8	O	0.276686	0.862758	0.979399
N1	N	0.308437	0.851253	0.704828
N2	N	0.060729	0.148857	0.206052
N3	N	0.186542	0.650310	0.705838
N4	N	0.438810	0.350928	0.208041
C1	C	0.288212	0.970050	0.521984
C2	C	0.038379	0.031106	0.022308
H1	H	0.237124	0.999575	0.443113
H2	H	0.486538	0.002692	0.943499
C3	C	0.390634	0.011770	0.546492
C4	C	0.140244	0.987744	0.046146
C5	C	0.451915	0.970202	0.650371
C6	C	0.202520	0.028353	0.149893
H3	H	0.032063	0.998805	0.673520
H4	H	0.282340	0.998665	0.172602
C7	C	0.208181	0.529704	0.526384
C8	C	0.458545	0.471409	0.027904
H5	H	0.258700	0.500895	0.449282
H6	H	0.008641	0.500397	0.950548
C9	C	0.245137	0.613331	0.606435
C10	C	0.496819	0.388677	0.108617
H7	H	0.074968	0.352851	0.095028
C11	C	0.249476	0.889206	0.603203
C12	C	0.001069	0.112232	0.104247
C13	C	0.407977	0.889383	0.727552
C14	C	0.159935	0.109547	0.227812
H8	H	0.453370	0.855173	0.808761
C15	C	0.088862	0.608983	0.727352
C16	C	0.340890	0.391633	0.229394
H9	H	0.043729	0.642944	0.806608
C17	C	0.046925	0.525079	0.651312
C18	C	0.297658	0.474711	0.152754
H10	H	0.468672	0.493231	0.673502
H11	H	0.218952	0.505201	0.175264
C19	C	0.108164	0.484270	0.550116
C20	C	0.357832	0.515656	0.050638
C21	C	0.433310	0.099319	0.466621
C22	C	0.181517	0.899720	0.965672
C23	C	0.067378	0.394474	0.470676
C24	C	0.316043	0.604172	0.969107
Ni3	Ni	0.747002	0.751486	0.836326
Ni4	Ni	0.999972	0.247999	0.339178
O9	O	0.622779	0.347689	0.382873
O10	O	0.871208	0.650977	0.881292
O11	O	0.877630	0.147507	0.377178
O12	O	0.625098	0.852352	0.876261
O13	O	0.973069	0.356160	0.482994
O14	O	0.721137	0.641415	0.979877
O15	O	0.528840	0.135158	0.481078
O16	O	0.776686	0.862758	0.979399
N5	N	0.808437	0.851253	0.704828
N6	N	0.560729	0.148857	0.206052
N7	N	0.686543	0.650310	0.705838
N8	N	0.938810	0.350928	0.208041
C25	C	0.788212	0.970050	0.521984
C26	C	0.538379	0.031106	0.022308
H12	H	0.737124	0.999575	0.443113
H13	H	0.986538	0.002692	0.943499
C27	C	0.890634	0.011770	0.546492
C28	C	0.640244	0.987744	0.046146
C29	C	0.951915	0.970202	0.650371
C30	C	0.702520	0.028353	0.149893
H14	H	0.532062	0.998805	0.673520
H15	H	0.782340	0.998665	0.172602
C31	C	0.708182	0.529704	0.526384
C32	C	0.958546	0.471409	0.027904
H16	H	0.758700	0.500895	0.449282
H17	H	0.508641	0.500397	0.950548
C33	C	0.745137	0.613331	0.606435
C34	C	0.996819	0.388677	0.108617
H18	H	0.822641	0.650506	0.592635
H19	H	0.574968	0.352851	0.095028
C35	C	0.749476	0.889206	0.603203
C36	C	0.501069	0.112232	0.104247
H20	H	0.922322	0.147732	0.089886
C37	C	0.907977	0.889383	0.727552
C38	C	0.659934	0.109547	0.227812
H21	H	0.953370	0.855173	0.808761
H22	H	0.706240	0.143103	0.308797
C39	C	0.588862	0.608983	0.727352
C40	C	0.840890	0.391633	0.229394
C41	C	0.546925	0.525079	0.651312
C42	C	0.797658	0.474711	0.152754
H23	H	0.968672	0.493231	0.673502
H24	H	0.718952	0.505201	0.175264
C43	C	0.608164	0.484270	0.550116
C44	C	0.857832	0.515656	0.050638
C45	C	0.933310	0.099319	0.466621
C46	C	0.681517	0.899720	0.965672
C47	C	0.567377	0.394474	0.470676
C48	C	0.816043	0.604172	0.969107
C49	C	0.135201	0.842627	0.574314
C50	C	0.097880	0.754811	0.666444
H25	H	0.133256	0.808122	0.474673
H26	H	0.075940	0.908506	0.579688
H27	H	0.151993	0.684605	0.662419
H28	H	0.016268	0.728401	0.636221
H29	H	0.094494	0.785308	0.767770
C51	C	0.230670	0.154959	0.342961
C52	C	0.179884	0.243152	0.424176
H30	H	0.251191	0.088629	0.410855
H31	H	0.305206	0.188689	0.302789
H32	H	0.106432	0.213395	0.471015
H33	H	0.237237	0.268647	0.502177
H34	H	0.160619	0.313775	0.362605
C53	C	0.356702	0.664290	0.579157
C54	C	0.392091	0.755066	0.670096
H35	H	0.418854	0.601095	0.587448
H36	H	0.355164	0.697256	0.478745
H37	H	0.398819	0.726356	0.772220
H38	H	0.471908	0.784448	0.641137
H39	H	0.334926	0.822825	0.663172
C55	C	0.272500	0.345709	0.342599
C56	C	0.323928	0.255406	0.422492
H40	H	0.196263	0.313916	0.300692
H41	H	0.255016	0.411339	0.411719
H42	H	0.340251	0.185410	0.359582
H43	H	0.268248	0.229733	0.499169
H44	H	0.399193	0.283142	0.470963
C57	C	0.635201	0.842627	0.574314
C58	C	0.597880	0.754811	0.666444
H45	H	0.633256	0.808122	0.474673
H46	H	0.575940	0.908506	0.579688
H47	H	0.651993	0.684605	0.662419
H48	H	0.516268	0.728401	0.636221
H49	H	0.594494	0.785308	0.767770
C59	C	0.387493	0.160720	0.075894
C60	C	0.351689	0.248708	0.168704
H50	H	0.385964	0.195684	-0.023509
H51	H	0.327205	0.095755	0.080937
H52	H	0.406899	0.318074	0.165049
H53	H	0.270469	0.276524	0.138827
H54	H	0.347952	0.217827	0.269829
C61	C	0.519777	0.655059	0.839628
C62	C	0.570105	0.746375	0.918805
H55	H	0.502672	0.589754	0.909349
H56	H	0.443382	0.685866	0.797022
H57	H	0.645468	0.719660	0.967926
H58	H	0.513930	0.772070	0.994931
H59	H	0.585990	0.816079	0.855242
C63	C	0.772500	0.345709	0.342599
C64	C	0.823928	0.255406	0.422492
H60	H	0.696263	0.313916	0.300692
H61	H	0.755016	0.411339	0.411719
H62	H	0.840251	0.185410	0.359582
H63	H	0.768248	0.229733	0.499169
H64	H	0.899193	0.283142	0.470963

loop_
_geom_bond_atom_site_label_1
_geom_bond_atom_site_label_2
_geom_bond_distance
Ni1	O2	0.16599
Ni1	O4	0.16318
Ni1	O6	0.18273
Ni1	O8	0.18366
Ni1	N1	0.17612
Ni1	N3	0.17584
Ni2	O3	0.16282
Ni2	O5	0.18195
Ni2	N4	0.17757
Ni2	O9	0.16410
Ni2	O15	0.18358
Ni2	N6	0.17676
O1	C23	0.11387
O1	Ni4	0.16410
O2	C24	0.11378
O3	C21	0.11585
O4	C22	0.11585
O5	C47	0.10254
O6	C24	0.10252
O7	Ni4	0.18358
O7	C45	0.10305
O8	C22	0.10301
N1	C11	0.12347
N1	C13	0.10899
N2	C12	0.12355
N2	C14	0.10891
N2	Ni4	0.17676
N3	C9	0.12117
N3	C15	0.10822
N4	C10	0.12114
N4	C16	0.10817
C1	H1	0.09850
C1	C3	0.11328
C1	C11	0.12097
C2	C4	0.11325
C2	C12	0.12119
C2	H13	0.09852
H2	C26	0.09852
C3	C5	0.12757
C3	C21	0.12596
C4	C6	0.12764
C4	C22	0.12621
C5	C13	0.12008
C5	H14	0.08819
C6	H4	0.08814
C6	C14	0.12032
H3	C29	0.08819
C7	H5	0.09658
C7	C9	0.12152
C7	C19	0.11239
C8	C10	0.12175
C8	C20	0.11233
C8	H17	0.09661
H6	C32	0.09661
C9	C53	0.12565
C10	H19	0.08704
H7	C34	0.08704
C11	C49	0.12674
C12	H20	0.08756
C13	H8	0.09912
C14	C51	0.14257
C15	H9	0.09732
C15	C17	0.12075
C16	C18	0.12102
C16	C55	0.14001
C17	C19	0.12512
C17	H23	0.08735
C18	H11	0.08735
C18	C20	0.12540
H10	C41	0.08735
C19	C23	0.12664
C20	C24	0.12739
C21	O15	0.10305
C23	O13	0.10254
Ni3	O10	0.16599
Ni3	O12	0.16318
Ni3	O14	0.18273
Ni3	O16	0.18366
Ni3	N5	0.17612
Ni3	N7	0.17584
Ni4	O11	0.16282
Ni4	O13	0.18195
Ni4	N8	0.17757
O9	C47	0.11387
O10	C48	0.11378
O11	C45	0.11585
O12	C46	0.11585
O14	C48	0.10252
O16	C46	0.10301
N5	C35	0.12347
N5	C37	0.10899
N6	C36	0.12355
N6	C38	0.10891
N7	C33	0.12117
N7	C39	0.10822
N8	C34	0.12114
N8	C40	0.10817
C25	H12	0.09850
C25	C27	0.11328
C25	C35	0.12097
C26	C28	0.11325
C26	C36	0.12119
C27	C29	0.12757
C27	C45	0.12596
C28	C30	0.12764
C28	C46	0.12621
C29	C37	0.12008
C30	H15	0.08814
C30	C38	0.12032
C31	H16	0.09658
C31	C33	0.12152
C31	C43	0.11239
C32	C34	0.12175
C32	C44	0.11233
C33	H18	0.08706
C35	C57	0.12674
C36	C59	0.12671
C37	H21	0.09912
C38	H22	0.09914
C39	C41	0.12075
C39	C61	0.13965
C40	C42	0.12102
C40	C63	0.14001
C41	C43	0.12512
C42	H24	0.08735
C42	C44	0.12540
C43	C47	0.12664
C44	C48	0.12739
C49	C50	0.13264
C49	H25	0.10546
C49	H26	0.08877
C50	H27	0.08873
C50	H28	0.09095
C50	H29	0.10587
C51	C52	0.13020
C51	H30	0.09711
C51	H31	0.09114
C52	H32	0.09206
C52	H33	0.10012
C52	H34	0.09566
C53	C54	0.13328
C53	H35	0.08902
C53	H36	0.10570
C54	H37	0.10630
C54	H38	0.08985
C54	H39	0.08892
C55	C56	0.13108
C55	H40	0.09262
C55	H41	0.09690
C56	H42	0.09552
C56	H43	0.09818
C56	H44	0.09372
C57	C58	0.13264
C57	H45	0.10546
C57	H46	0.08877
C58	H47	0.08873
C58	H48	0.09095
C58	H49	0.10587
C59	C60	0.13281
C59	H50	0.10538
C59	H51	0.08877
C60	H52	0.08873
C60	H53	0.09090
C60	H54	0.10580
C61	C62	0.13092
C61	H55	0.09705
C61	H56	0.09274
C62	H57	0.09384
C62	H58	0.09804
C62	H59	0.09566
C63	C64	0.13108
C63	H60	0.09262
C63	H61	0.09690
C64	H62	0.09552
C64	H63	0.09818
C64	H64	0.09372
