data_NiPyC2_NiPyC2_aligned_NH2_NiPyC2_aligned_NH2_NiPyC2_aligned_NH2_NiPyC2_aligned_NH2_NiPyC2_aligned_NH2_NiPyC2_aligned_NH2_NiPyC2_aligned_NH2_NiPyC2_aligned_NH2_NiPyC2_aligned_NH2_NiPyC2_aligned_NH2_NiPyC2_aligned_NH2_NiPyC2_aligned_NH2_NiPyC2_aligned_NH2_NiPyC2_aligned_NH2_NiPyC2_aligned_NH2_NiPyC2_aligned_NH2_NiPyC2_aligned_NH2_NiPyC2_aligned_NH2_NiPyC2_aligned_NH2_NiPyC2_aligned_NH2_NiPyC2_aligned_NH2_NiPyC2_aligned_NH2_NiPyC2_aligned_NH2_NiPyC2_aligned_NH2_NiPyC2_aligned_NH2_NiPyC2_aligned_NH2_NiPyC2_aligned_NH2_NiPyC2_aligned_NH2_NiPyC2_aligned_NH2_NiPyC2_aligned_NH2_NiPyC2_aligned_NH2_NiPyC2_aligned_NH2_PM
_symmetry_space_group_name_H-M	'P1'
_cell_length_a	12.505600
_cell_length_b	25.046800
_cell_length_c	20.553600
_cell_angle_alpha	90.000000
_cell_angle_beta	91.269000
_cell_angle_gamma	90.000000
_symmetry_Int_Tables_number 1

loop_
_symmetry_equiv_pos_as_xyz
'x,y,z'

loop_
_atom_site_label
_atom_site_type_symbol
_atom_site_fract_x
_atom_site_fract_y
_atom_site_fract_z
Ni1	Ni	0.247400	0.376980	0.419715
O1	O	0.120650	0.174810	0.196450
O2	O	0.377450	0.066540	0.185100
O3	O	0.468450	0.176115	0.248650
O4	O	0.033250	0.059900	0.237100
N1	N	0.313950	0.421450	0.348100
N2	N	0.180550	0.323050	0.357550
C1	C	0.293900	0.479650	0.256700
H1	H	0.250100	0.493100	0.222050
C2	C	0.396600	0.499000	0.266850
C3	C	0.458550	0.477300	0.317700
H2	H	0.030100	0.488900	0.325250
C4	C	0.203850	0.259550	0.272050
H3	H	0.247550	0.245500	0.238900
C5	C	0.240150	0.301600	0.310850
H4	H	0.309550	0.315650	0.303950
C6	C	0.255750	0.440450	0.297500
H5	H	0.186050	0.426500	0.289550
C7	C	0.414250	0.438850	0.356850
C8	C	0.082250	0.302250	0.367300
C9	C	0.041300	0.260150	0.331300
H6	H	0.472300	0.246250	0.339550
C10	C	0.103950	0.238500	0.282300
C11	C	0.439000	0.044650	0.227500
C12	C	0.061000	0.193100	0.240750
Ni2	Ni	0.497400	0.123020	0.169715
O5	O	0.370650	0.325190	0.446450
O6	O	0.127450	0.433460	0.435100
O7	O	0.218450	0.323885	0.498650
O8	O	0.283250	0.440100	0.487100
N3	N	0.063950	0.078550	0.098100
N4	N	0.430550	0.176950	0.107550
C13	C	0.043900	0.020350	0.006700
H7	H	0.000100	0.006900	0.472050
C14	C	0.146600	0.001000	0.016850
C15	C	0.208550	0.022700	0.067700
H8	H	0.280100	0.011100	0.075250
C16	C	0.453850	0.240450	0.022050
H9	H	0.497550	0.254500	0.488900
C17	C	0.490150	0.198400	0.060850
H10	H	0.059550	0.184350	0.053950
C18	C	0.005750	0.059550	0.047500
C19	C	0.164250	0.061150	0.106850
H11	H	0.206650	0.075850	0.141300
C20	C	0.332250	0.197750	0.117300
H12	H	0.289650	0.182700	0.150350
C21	C	0.291300	0.239850	0.081300
H13	H	0.222300	0.253750	0.089550
C22	C	0.353950	0.261500	0.032300
C23	C	0.189000	0.455350	0.477500
C24	C	0.311000	0.306900	0.490750
Ni3	Ni	0.247400	0.376980	0.919715
O9	O	0.120650	0.174810	0.696450
O10	O	0.377450	0.066540	0.685100
O11	O	0.468450	0.176115	0.748650
O12	O	0.033250	0.059900	0.737100
N5	N	0.313950	0.421450	0.848100
N6	N	0.180550	0.323050	0.857550
C25	C	0.293900	0.479650	0.756700
H14	H	0.250100	0.493100	0.722050
C26	C	0.396600	0.499000	0.766850
C27	C	0.458550	0.477300	0.817700
H15	H	0.030100	0.488900	0.825250
C28	C	0.203850	0.259550	0.772050
H16	H	0.247550	0.245500	0.738900
C29	C	0.240150	0.301600	0.810850
H17	H	0.309550	0.315650	0.803950
C30	C	0.255750	0.440450	0.797500
H18	H	0.186050	0.426500	0.789550
C31	C	0.414250	0.438850	0.856850
C32	C	0.082250	0.302250	0.867300
C33	C	0.041300	0.260150	0.831300
H19	H	0.472300	0.246250	0.839550
C34	C	0.103950	0.238500	0.782300
C35	C	0.439000	0.044650	0.727500
C36	C	0.061000	0.193100	0.740750
Ni4	Ni	0.497400	0.123020	0.669715
O13	O	0.370650	0.325190	0.946450
O14	O	0.127450	0.433460	0.935100
O15	O	0.218450	0.323885	0.998650
O16	O	0.283250	0.440100	0.987100
N7	N	0.063950	0.078550	0.598100
N8	N	0.430550	0.176950	0.607550
C37	C	0.043900	0.020350	0.506700
H20	H	0.000100	0.006900	0.972050
C38	C	0.146600	0.001000	0.516850
C39	C	0.208550	0.022700	0.567700
H21	H	0.280100	0.011100	0.575250
C40	C	0.453850	0.240450	0.522050
H22	H	0.497550	0.254500	0.988900
C41	C	0.490150	0.198400	0.560850
C42	C	0.005750	0.059550	0.547500
C43	C	0.164250	0.061150	0.606850
C44	C	0.332250	0.197750	0.617300
H23	H	0.289650	0.182700	0.650350
C45	C	0.291300	0.239850	0.581300
H24	H	0.222300	0.253750	0.589550
C46	C	0.353950	0.261500	0.532300
C47	C	0.189000	0.455350	0.977500
C48	C	0.311000	0.306900	0.990750
Ni5	Ni	0.247400	0.876980	0.419715
O17	O	0.120650	0.674810	0.196450
O18	O	0.377450	0.566540	0.185100
O19	O	0.468450	0.676115	0.248650
O20	O	0.033250	0.559900	0.237100
N9	N	0.313950	0.921450	0.348100
N10	N	0.180550	0.823050	0.357550
C49	C	0.293900	0.979650	0.256700
H25	H	0.250100	0.993100	0.222050
C50	C	0.396600	0.999000	0.266850
C51	C	0.458550	0.977300	0.317700
H26	H	0.030100	0.988900	0.325250
C52	C	0.203850	0.759550	0.272050
H27	H	0.247550	0.745500	0.238900
C53	C	0.240150	0.801600	0.310850
C54	C	0.255750	0.940450	0.297500
C55	C	0.414250	0.938850	0.356850
H28	H	0.456650	0.924150	0.391300
C56	C	0.082250	0.802250	0.367300
H29	H	0.039650	0.817300	0.400350
C57	C	0.041300	0.760150	0.331300
H30	H	0.472300	0.746250	0.339550
C58	C	0.103950	0.738500	0.282300
C59	C	0.439000	0.544650	0.227500
C60	C	0.061000	0.693100	0.240750
Ni6	Ni	0.497400	0.623020	0.169715
O21	O	0.370650	0.825190	0.446450
O22	O	0.127450	0.933460	0.435100
O23	O	0.218450	0.823885	0.498650
O24	O	0.283250	0.940100	0.487100
N11	N	0.063950	0.578550	0.098100
N12	N	0.430550	0.676950	0.107550
C61	C	0.043900	0.520350	0.006700
H31	H	0.000100	0.506900	0.472050
C62	C	0.146600	0.501000	0.016850
C63	C	0.208550	0.522700	0.067700
H32	H	0.280100	0.511100	0.075250
C64	C	0.453850	0.740450	0.022050
H33	H	0.497550	0.754500	0.488900
C65	C	0.490150	0.698400	0.060850
H34	H	0.059550	0.684350	0.053950
C66	C	0.005750	0.559550	0.047500
H35	H	0.436050	0.573500	0.039550
C67	C	0.164250	0.561150	0.106850
H36	H	0.206650	0.575850	0.141300
C68	C	0.332250	0.697750	0.117300
H37	H	0.289650	0.682700	0.150350
C69	C	0.291300	0.739850	0.081300
H38	H	0.222300	0.753750	0.089550
C70	C	0.353950	0.761500	0.032300
C71	C	0.189000	0.955350	0.477500
C72	C	0.311000	0.806900	0.490750
Ni7	Ni	0.247400	0.876980	0.919715
O25	O	0.120650	0.674810	0.696450
O26	O	0.377450	0.566540	0.685100
O27	O	0.468450	0.676115	0.748650
O28	O	0.033250	0.559900	0.737100
N13	N	0.313950	0.921450	0.848100
N14	N	0.180550	0.823050	0.857550
C73	C	0.293900	0.979650	0.756700
H39	H	0.250100	0.993100	0.722050
C74	C	0.396600	0.999000	0.766850
C75	C	0.458550	0.977300	0.817700
H40	H	0.030100	0.988900	0.825250
C76	C	0.203850	0.759550	0.772050
H41	H	0.247550	0.745500	0.738900
C77	C	0.240150	0.801600	0.810850
H42	H	0.309550	0.815650	0.803950
C78	C	0.255750	0.940450	0.797500
C79	C	0.414250	0.938850	0.856850
H43	H	0.456650	0.924150	0.891300
C80	C	0.082250	0.802250	0.867300
C81	C	0.041300	0.760150	0.831300
H44	H	0.472300	0.746250	0.839550
C82	C	0.103950	0.738500	0.782300
C83	C	0.439000	0.544650	0.727500
C84	C	0.061000	0.693100	0.740750
Ni8	Ni	0.497400	0.623020	0.669715
O29	O	0.370650	0.825190	0.946450
O30	O	0.127450	0.933460	0.935100
O31	O	0.218450	0.823885	0.998650
O32	O	0.283250	0.940100	0.987100
N15	N	0.063950	0.578550	0.598100
N16	N	0.430550	0.676950	0.607550
C85	C	0.043900	0.520350	0.506700
H45	H	0.000100	0.506900	0.972050
C86	C	0.146600	0.501000	0.516850
C87	C	0.208550	0.522700	0.567700
H46	H	0.280100	0.511100	0.575250
C88	C	0.453850	0.740450	0.522050
H47	H	0.497550	0.754500	0.988900
C89	C	0.490150	0.698400	0.560850
H48	H	0.059550	0.684350	0.553950
C90	C	0.005750	0.559550	0.547500
H49	H	0.436050	0.573500	0.539550
C91	C	0.164250	0.561150	0.606850
H50	H	0.206650	0.575850	0.641300
C92	C	0.332250	0.697750	0.617300
C93	C	0.291300	0.739850	0.581300
H51	H	0.222300	0.753750	0.589550
C94	C	0.353950	0.761500	0.532300
C95	C	0.189000	0.955350	0.977500
C96	C	0.311000	0.806900	0.990750
Ni9	Ni	0.747400	0.376980	0.419715
O33	O	0.620650	0.174810	0.196450
O34	O	0.877450	0.066540	0.185100
O35	O	0.968450	0.176115	0.248650
O36	O	0.533250	0.059900	0.237100
N17	N	0.813950	0.421450	0.348100
N18	N	0.680550	0.323050	0.357550
C97	C	0.793900	0.479650	0.256700
H52	H	0.750100	0.493100	0.222050
C98	C	0.896600	0.499000	0.266850
C99	C	0.958550	0.477300	0.317700
H53	H	0.530100	0.488900	0.325250
C100	C	0.703850	0.259550	0.272050
H54	H	0.747550	0.245500	0.238900
C101	C	0.740150	0.301600	0.310850
H55	H	0.809550	0.315650	0.303950
C102	C	0.755750	0.440450	0.297500
C103	C	0.914250	0.438850	0.356850
H56	H	0.956650	0.424150	0.391300
C104	C	0.582250	0.302250	0.367300
C105	C	0.541300	0.260150	0.331300
H57	H	0.972300	0.246250	0.339550
C106	C	0.603950	0.238500	0.282300
C107	C	0.939000	0.044650	0.227500
C108	C	0.561000	0.193100	0.240750
Ni10	Ni	0.997400	0.123020	0.169715
O37	O	0.870650	0.325190	0.446450
O38	O	0.627450	0.433460	0.435100
O39	O	0.718450	0.323885	0.498650
O40	O	0.783250	0.440100	0.487100
N19	N	0.563950	0.078550	0.098100
N20	N	0.930550	0.176950	0.107550
C109	C	0.543900	0.020350	0.006700
H58	H	0.500100	0.006900	0.472050
C110	C	0.646600	0.001000	0.016850
C111	C	0.708550	0.022700	0.067700
H59	H	0.780100	0.011100	0.075250
C112	C	0.953850	0.240450	0.022050
H60	H	0.997550	0.254500	0.488900
C113	C	0.990150	0.198400	0.060850
C114	C	0.505750	0.059550	0.047500
C115	C	0.664250	0.061150	0.106850
H61	H	0.706650	0.075850	0.141300
C116	C	0.832250	0.197750	0.117300
C117	C	0.791300	0.239850	0.081300
H62	H	0.722300	0.253750	0.089550
C118	C	0.853950	0.261500	0.032300
C119	C	0.689000	0.455350	0.477500
C120	C	0.811000	0.306900	0.490750
Ni11	Ni	0.747400	0.376980	0.919715
O41	O	0.620650	0.174810	0.696450
O42	O	0.877450	0.066540	0.685100
O43	O	0.968450	0.176115	0.748650
O44	O	0.533250	0.059900	0.737100
N21	N	0.813950	0.421450	0.848100
N22	N	0.680550	0.323050	0.857550
C121	C	0.793900	0.479650	0.756700
H63	H	0.750100	0.493100	0.722050
C122	C	0.896600	0.499000	0.766850
C123	C	0.958550	0.477300	0.817700
H64	H	0.530100	0.488900	0.825250
C124	C	0.703850	0.259550	0.772050
H65	H	0.747550	0.245500	0.738900
C125	C	0.740150	0.301600	0.810850
H66	H	0.809550	0.315650	0.803950
C126	C	0.755750	0.440450	0.797500
C127	C	0.914250	0.438850	0.856850
H67	H	0.956650	0.424150	0.891300
C128	C	0.582250	0.302250	0.867300
C129	C	0.541300	0.260150	0.831300
H68	H	0.972300	0.246250	0.839550
C130	C	0.603950	0.238500	0.782300
C131	C	0.939000	0.044650	0.727500
C132	C	0.561000	0.193100	0.740750
Ni12	Ni	0.997400	0.123020	0.669715
O45	O	0.870650	0.325190	0.946450
O46	O	0.627450	0.433460	0.935100
O47	O	0.718450	0.323885	0.998650
O48	O	0.783250	0.440100	0.987100
N23	N	0.563950	0.078550	0.598100
N24	N	0.930550	0.176950	0.607550
C133	C	0.543900	0.020350	0.506700
H69	H	0.500100	0.006900	0.972050
C134	C	0.646600	0.001000	0.516850
C135	C	0.708550	0.022700	0.567700
H70	H	0.780100	0.011100	0.575250
C136	C	0.953850	0.240450	0.522050
H71	H	0.997550	0.254500	0.988900
C137	C	0.990150	0.198400	0.560850
C138	C	0.505750	0.059550	0.547500
H72	H	0.936050	0.073500	0.539550
C139	C	0.664250	0.061150	0.606850
H73	H	0.706650	0.075850	0.641300
C140	C	0.832250	0.197750	0.617300
H74	H	0.789650	0.182700	0.650350
C141	C	0.791300	0.239850	0.581300
H75	H	0.722300	0.253750	0.589550
C142	C	0.853950	0.261500	0.532300
C143	C	0.689000	0.455350	0.977500
C144	C	0.811000	0.306900	0.990750
Ni13	Ni	0.747400	0.876980	0.419715
O49	O	0.620650	0.674810	0.196450
O50	O	0.877450	0.566540	0.185100
O51	O	0.968450	0.676115	0.248650
O52	O	0.533250	0.559900	0.237100
N25	N	0.813950	0.921450	0.348100
N26	N	0.680550	0.823050	0.357550
C145	C	0.793900	0.979650	0.256700
H76	H	0.750100	0.993100	0.222050
C146	C	0.896600	0.999000	0.266850
C147	C	0.958550	0.977300	0.317700
H77	H	0.530100	0.988900	0.325250
C148	C	0.703850	0.759550	0.272050
H78	H	0.747550	0.745500	0.238900
C149	C	0.740150	0.801600	0.310850
C150	C	0.755750	0.940450	0.297500
C151	C	0.914250	0.938850	0.356850
H79	H	0.956650	0.924150	0.391300
C152	C	0.582250	0.802250	0.367300
H80	H	0.539650	0.817300	0.400350
C153	C	0.541300	0.760150	0.331300
H81	H	0.972300	0.746250	0.339550
C154	C	0.603950	0.738500	0.282300
C155	C	0.939000	0.544650	0.227500
C156	C	0.561000	0.693100	0.240750
Ni14	Ni	0.997400	0.623020	0.169715
O53	O	0.870650	0.825190	0.446450
O54	O	0.627450	0.933460	0.435100
O55	O	0.718450	0.823885	0.498650
O56	O	0.783250	0.940100	0.487100
N27	N	0.563950	0.578550	0.098100
N28	N	0.930550	0.676950	0.107550
C157	C	0.543900	0.520350	0.006700
H82	H	0.500100	0.506900	0.472050
C158	C	0.646600	0.501000	0.016850
C159	C	0.708550	0.522700	0.067700
H83	H	0.780100	0.511100	0.075250
C160	C	0.953850	0.740450	0.022050
H84	H	0.997550	0.754500	0.488900
C161	C	0.990150	0.698400	0.060850
C162	C	0.505750	0.559550	0.047500
C163	C	0.664250	0.561150	0.106850
C164	C	0.832250	0.697750	0.117300
C165	C	0.791300	0.739850	0.081300
H85	H	0.722300	0.753750	0.089550
C166	C	0.853950	0.761500	0.032300
C167	C	0.689000	0.955350	0.477500
C168	C	0.811000	0.806900	0.490750
Ni15	Ni	0.747400	0.876980	0.919715
O57	O	0.620650	0.674810	0.696450
O58	O	0.877450	0.566540	0.685100
O59	O	0.968450	0.676115	0.748650
O60	O	0.533250	0.559900	0.737100
N29	N	0.813950	0.921450	0.848100
N30	N	0.680550	0.823050	0.857550
C169	C	0.793900	0.979650	0.756700
H86	H	0.750100	0.993100	0.722050
C170	C	0.896600	0.999000	0.766850
C171	C	0.958550	0.977300	0.817700
H87	H	0.530100	0.988900	0.825250
C172	C	0.703850	0.759550	0.772050
H88	H	0.747550	0.745500	0.738900
C173	C	0.740150	0.801600	0.810850
H89	H	0.809550	0.815650	0.803950
C174	C	0.755750	0.940450	0.797500
C175	C	0.914250	0.938850	0.856850
H90	H	0.956650	0.924150	0.891300
C176	C	0.582250	0.802250	0.867300
C177	C	0.541300	0.760150	0.831300
H91	H	0.972300	0.746250	0.839550
C178	C	0.603950	0.738500	0.782300
C179	C	0.939000	0.544650	0.727500
C180	C	0.561000	0.693100	0.740750
Ni16	Ni	0.997400	0.623020	0.669715
O61	O	0.870650	0.825190	0.946450
O62	O	0.627450	0.933460	0.935100
O63	O	0.718450	0.823885	0.998650
O64	O	0.783250	0.940100	0.987100
N31	N	0.563950	0.578550	0.598100
N32	N	0.930550	0.676950	0.607550
C181	C	0.543900	0.520350	0.506700
H92	H	0.500100	0.506900	0.972050
C182	C	0.646600	0.501000	0.516850
C183	C	0.708550	0.522700	0.567700
H93	H	0.780100	0.511100	0.575250
C184	C	0.953850	0.740450	0.522050
H94	H	0.997550	0.754500	0.988900
C185	C	0.990150	0.698400	0.560850
H95	H	0.559550	0.684350	0.553950
C186	C	0.505750	0.559550	0.547500
C187	C	0.664250	0.561150	0.606850
C188	C	0.832250	0.697750	0.617300
C189	C	0.791300	0.739850	0.581300
H96	H	0.722300	0.753750	0.589550
C190	C	0.853950	0.761500	0.532300
C191	C	0.689000	0.955350	0.977500
C192	C	0.811000	0.806900	0.990750
N33	N	0.475498	0.414471	0.411136
H97	H	0.439616	0.385846	0.439325
H98	H	0.552767	0.424014	0.423274
N34	N	0.021039	0.327586	0.419248
H99	H	0.054290	0.358951	0.445099
H100	H	-0.053999	0.316052	0.431897
N35	N	-0.101153	0.082859	0.037911
H101	H	-0.126558	0.112002	0.069432
H102	H	-0.153546	0.072091	0.001431
N36	N	0.596633	0.175006	0.052714
H103	H	0.620635	0.143880	0.082422
H104	H	0.650023	0.187506	0.019070
N37	N	0.475498	0.414471	0.911136
H105	H	0.439616	0.385846	0.939325
H106	H	0.552767	0.424014	0.923274
N38	N	0.021039	0.327586	0.919248
H107	H	0.054291	0.358950	0.945100
H108	H	-0.054000	0.316053	0.931896
N39	N	0.225498	0.085529	0.661136
H109	H	0.189616	0.114154	0.689325
H110	H	0.302767	0.075986	0.673274
N40	N	0.596633	0.175006	0.552714
H111	H	0.620635	0.143880	0.582422
H112	H	0.650023	0.187506	0.519070
N41	N	0.148847	0.917141	0.287911
H113	H	0.123443	0.887998	0.319432
H114	H	0.096453	0.927910	0.251433
N42	N	0.346633	0.824994	0.302714
H115	H	0.370635	0.856120	0.332422
H116	H	0.400023	0.812494	0.269070
N43	N	-0.101153	0.582859	0.037911
H117	H	-0.126558	0.612002	0.069432
H118	H	-0.153546	0.572091	0.001431
N44	N	0.596633	0.675006	0.052714
H119	H	0.620635	0.643880	0.082422
H120	H	0.650023	0.687506	0.019070
N45	N	0.148847	0.917141	0.787911
H121	H	0.123443	0.887998	0.819432
H122	H	0.096453	0.927910	0.751433
N46	N	0.021039	0.827586	0.919248
H123	H	0.054290	0.858951	0.945099
H124	H	-0.053999	0.816052	0.931897
N47	N	-0.101153	0.582859	0.537911
H125	H	-0.126558	0.612002	0.569432
H126	H	-0.153546	0.572091	0.501431
N48	N	0.271039	0.672414	0.669248
H127	H	0.304290	0.641049	0.695099
H128	H	0.196001	0.683948	0.681897
N49	N	0.648847	0.417141	0.287911
H129	H	0.623443	0.387998	0.319432
H130	H	0.596453	0.427910	0.251433
N50	N	0.521039	0.327586	0.419248
H131	H	0.554290	0.358951	0.445099
H132	H	0.446001	0.316052	0.431897
N51	N	0.398847	0.082859	0.037911
H133	H	0.373442	0.112002	0.069432
H134	H	0.346454	0.072091	0.001431
N52	N	0.771039	0.172414	0.169248
H135	H	0.804291	0.141050	0.195100
H136	H	0.696000	0.183947	0.181896
N53	N	0.648847	0.417141	0.787911
H137	H	0.623442	0.387998	0.819432
H138	H	0.596454	0.427909	0.751431
N54	N	0.521039	0.327586	0.919248
H139	H	0.554290	0.358951	0.945099
H140	H	0.446001	0.316052	0.931897
N55	N	0.398847	0.082859	0.537911
H141	H	0.373442	0.112002	0.569432
H142	H	0.346454	0.072091	0.501431
N56	N	1.096633	0.175006	0.552714
H143	H	1.120635	0.143880	0.582422
H144	H	1.150023	0.187506	0.519070
N57	N	0.648847	0.917141	0.287911
H145	H	0.623443	0.887998	0.319432
H146	H	0.596453	0.927910	0.251433
N58	N	0.846633	0.824994	0.302714
H147	H	0.870634	0.856120	0.332421
H148	H	0.900024	0.812493	0.269072
N59	N	0.725498	0.585529	0.161136
H149	H	0.689617	0.614154	0.189324
H150	H	0.802766	0.575985	0.173275
N60	N	0.771039	0.672414	0.169248
H151	H	0.804290	0.641049	0.195099
H152	H	0.696001	0.683948	0.181897
N61	N	0.648847	0.917141	0.787911
H153	H	0.623442	0.887998	0.819432
H154	H	0.596454	0.927909	0.751431
N62	N	0.521039	0.827586	0.919248
H155	H	0.554290	0.858951	0.945099
H156	H	0.446001	0.816052	0.931897
N63	N	0.725498	0.585529	0.661136
H157	H	0.689617	0.614154	0.689324
H158	H	0.802766	0.575985	0.673275
N64	N	0.771039	0.672414	0.669248
H159	H	0.804290	0.641049	0.695099
H160	H	0.696001	0.683948	0.681897

loop_
_geom_bond_atom_site_label_1
_geom_bond_atom_site_label_2
_geom_bond_distance
Ni1	N1	0.10740
Ni1	N2	0.10603
Ni1	O5	0.13634
Ni1	O6	0.13347
Ni1	O7	0.09944
Ni1	O8	0.09905
O1	C12	0.07652
O1	Ni10	0.13634
O2	C11	0.07788
O2	Ni2	0.13347
O3	Ni2	0.09944
O3	C108	0.09443
O4	C107	0.09596
O4	Ni10	0.09905
N1	C6	0.07943
N1	C7	0.10217
N2	C5	0.07870
N2	C8	0.10095
C1	H1	0.05745
C1	C2	0.10500
C1	C6	0.06824
C2	C3	0.08303
C2	C59	0.07369
C3	C7	0.07052
C3	H53	0.07288
H2	C99	0.07288
C4	H3	0.05662
C4	C5	0.06776
C4	C10	0.10261
C5	H4	0.07114
C6	H5	0.07153
C7	N33	0.08540
C8	C9	0.06889
C8	N34	0.08419
C9	C10	0.08243
C9	H57	0.07087
H6	C105	0.07087
C10	C12	0.07505
C11	C50	0.07369
C11	O36	0.09596
C12	O35	0.09443
Ni2	N4	0.10603
Ni2	O33	0.13634
Ni2	O36	0.09905
Ni2	N19	0.10740
O5	C24	0.07652
O6	C23	0.07788
O7	C24	0.09443
O8	C23	0.09596
N3	C18	0.07943
N3	C19	0.10217
N3	Ni10	0.10740
N4	C17	0.07870
N4	C20	0.10095
C13	C14	0.10500
C13	C18	0.06824
C13	H20	0.05745
H7	C37	0.05745
C14	C15	0.08303
C14	C95	0.07369
C15	H8	0.07288
C15	C19	0.07052
C16	C17	0.06776
C16	C22	0.10261
C16	H22	0.05662
H9	C40	0.05662
C17	N36	0.10933
H10	C113	0.07114
C18	N35	0.10983
C19	H11	0.05657
C20	H12	0.05598
C20	C21	0.06889
C21	H13	0.07087
C21	C22	0.08243
C22	C48	0.07505
C23	C86	0.07369
C24	C46	0.07505
Ni3	N5	0.10740
Ni3	N6	0.10603
Ni3	O13	0.13634
Ni3	O14	0.13347
Ni3	O15	0.09944
Ni3	O16	0.09905
O9	C36	0.07652
O9	Ni12	0.13634
O10	C35	0.07788
O10	Ni4	0.13347
O11	Ni4	0.09944
O11	C132	0.09443
O12	C131	0.09596
O12	Ni12	0.09905
N5	C30	0.07943
N5	C31	0.10217
N6	C29	0.07870
N6	C32	0.10095
C25	H14	0.05745
C25	C26	0.10500
C25	C30	0.06824
C26	C27	0.08303
C26	C83	0.07369
C27	C31	0.07052
C27	H64	0.07288
H15	C123	0.07288
C28	H16	0.05662
C28	C29	0.06776
C28	C34	0.10261
C29	H17	0.07114
C30	H18	0.07153
C31	N37	0.08540
C32	C33	0.06889
C32	N38	0.08419
C33	C34	0.08243
C33	H68	0.07087
H19	C129	0.07087
C34	C36	0.07505
C35	C74	0.07369
C35	O44	0.09596
C36	O43	0.09443
Ni4	N8	0.10603
Ni4	O41	0.13634
Ni4	O44	0.09905
Ni4	N23	0.10740
O13	C48	0.07652
O14	C47	0.07788
O15	C48	0.09443
O16	C47	0.09596
N7	C42	0.07943
N7	C43	0.10217
N7	Ni12	0.10740
N8	C41	0.07870
N8	C44	0.10095
C37	C38	0.10500
C37	C42	0.06824
C38	C39	0.08303
C38	C71	0.07369
C39	H21	0.07288
C39	C43	0.07052
C40	C41	0.06776
C40	C46	0.10261
C41	N40	0.10933
C42	H72	0.07153
C43	N39	0.08540
C44	H23	0.05598
C44	C45	0.06889
C45	H24	0.07087
C45	C46	0.08243
C47	C62	0.07369
Ni5	N9	0.10740
Ni5	N10	0.10603
Ni5	O21	0.13634
Ni5	O22	0.13347
Ni5	O23	0.09944
Ni5	O24	0.09905
O17	C60	0.07652
O17	Ni14	0.13634
O18	C59	0.07788
O18	Ni6	0.13347
O19	Ni6	0.09944
O19	C156	0.09443
O20	C155	0.09596
O20	Ni14	0.09905
N9	C54	0.07943
N9	C55	0.10217
N10	C53	0.07870
N10	C56	0.10095
C49	H25	0.05745
C49	C50	0.10500
C49	C54	0.06824
C50	C51	0.08303
C51	C55	0.07052
C51	H77	0.07288
H26	C147	0.07288
C52	H27	0.05662
C52	C53	0.06776
C52	C58	0.10261
C53	N42	0.10933
C54	N41	0.10983
C55	H28	0.05657
C56	H29	0.05598
C56	C57	0.06889
C57	C58	0.08243
C57	H81	0.07087
H30	C153	0.07087
C58	C60	0.07505
C59	O52	0.09596
C60	O51	0.09443
Ni6	N12	0.10603
Ni6	O49	0.13634
Ni6	O52	0.09905
Ni6	N27	0.10740
O21	C72	0.07652
O22	C71	0.07788
O23	C72	0.09443
O24	C71	0.09596
N11	C66	0.07943
N11	C67	0.10217
N11	Ni14	0.10740
N12	C65	0.07870
N12	C68	0.10095
C61	C62	0.10500
C61	C66	0.06824
C61	H45	0.05745
H31	C85	0.05745
C62	C63	0.08303
C63	H32	0.07288
C63	C67	0.07052
C64	C65	0.06776
C64	C70	0.10261
C64	H47	0.05662
H33	C88	0.05662
C65	N44	0.10933
H34	C161	0.07114
C66	N43	0.10983
H35	C162	0.07153
C67	H36	0.05657
C68	H37	0.05598
C68	C69	0.06889
C69	H38	0.07087
C69	C70	0.08243
C70	C96	0.07505
C72	C94	0.07505
Ni7	N13	0.10740
Ni7	N14	0.10603
Ni7	O29	0.13634
Ni7	O30	0.13347
Ni7	O31	0.09944
Ni7	O32	0.09905
O25	C84	0.07652
O25	Ni16	0.13634
O26	C83	0.07788
O26	Ni8	0.13347
O27	Ni8	0.09944
O27	C180	0.09443
O28	C179	0.09596
O28	Ni16	0.09905
N13	C78	0.07943
N13	C79	0.10217
N14	C77	0.07870
N14	C80	0.10095
C73	H39	0.05745
C73	C74	0.10500
C73	C78	0.06824
C74	C75	0.08303
C75	C79	0.07052
C75	H87	0.07288
H40	C171	0.07288
C76	H41	0.05662
C76	C77	0.06776
C76	C82	0.10261
C77	H42	0.07114
C78	N45	0.10983
C79	H43	0.05657
C80	C81	0.06889
C80	N46	0.08419
C81	C82	0.08243
C81	H91	0.07087
H44	C177	0.07087
C82	C84	0.07505
C83	O60	0.09596
C84	O59	0.09443
Ni8	N16	0.10603
Ni8	O57	0.13634
Ni8	O60	0.09905
Ni8	N31	0.10740
O29	C96	0.07652
O30	C95	0.07788
O31	C96	0.09443
O32	C95	0.09596
N15	C90	0.07943
N15	C91	0.10217
N15	Ni16	0.10740
N16	C89	0.07870
N16	C92	0.10095
C85	C86	0.10500
C85	C90	0.06824
C86	C87	0.08303
C87	H46	0.07288
C87	C91	0.07052
C88	C89	0.06776
C88	C94	0.10261
C89	H95	0.07114
H48	C185	0.07114
C90	N47	0.10983
H49	C186	0.07153
C91	H50	0.05657
C92	C93	0.06889
C92	N48	0.08419
C93	H51	0.07087
C93	C94	0.08243
Ni9	N17	0.10740
Ni9	N18	0.10603
Ni9	O37	0.13634
Ni9	O38	0.13347
Ni9	O39	0.09944
Ni9	O40	0.09905
O33	C108	0.07652
O34	C107	0.07788
O34	Ni10	0.13347
O35	Ni10	0.09944
N17	C102	0.07943
N17	C103	0.10217
N18	C101	0.07870
N18	C104	0.10095
C97	H52	0.05745
C97	C98	0.10500
C97	C102	0.06824
C98	C99	0.08303
C98	C155	0.07369
C99	C103	0.07052
C100	H54	0.05662
C100	C101	0.06776
C100	C106	0.10261
C101	H55	0.07114
C102	N49	0.10983
C103	H56	0.05657
C104	C105	0.06889
C104	N50	0.08419
C105	C106	0.08243
C106	C108	0.07505
C107	C146	0.07369
Ni10	N20	0.10603
O37	C120	0.07652
O38	C119	0.07788
O39	C120	0.09443
O40	C119	0.09596
N19	C114	0.07943
N19	C115	0.10217
N20	C113	0.07870
N20	C116	0.10095
C109	C110	0.10500
C109	C114	0.06824
C109	H69	0.05745
H58	C133	0.05745
C110	C111	0.08303
C110	C191	0.07369
C111	H59	0.07288
C111	C115	0.07052
C112	C113	0.06776
C112	C118	0.10261
C112	H71	0.05662
H60	C136	0.05662
C114	N51	0.10983
C115	H61	0.05657
C116	C117	0.06889
C116	N52	0.08419
C117	H62	0.07087
C117	C118	0.08243
C118	C144	0.07505
C119	C182	0.07369
C120	C142	0.07505
Ni11	N21	0.10740
Ni11	N22	0.10603
Ni11	O45	0.13634
Ni11	O46	0.13347
Ni11	O47	0.09944
Ni11	O48	0.09905
O41	C132	0.07652
O42	C131	0.07788
O42	Ni12	0.13347
O43	Ni12	0.09944
N21	C126	0.07943
N21	C127	0.10217
N22	C125	0.07870
N22	C128	0.10095
C121	H63	0.05745
C121	C122	0.10500
C121	C126	0.06824
C122	C123	0.08303
C122	C179	0.07369
C123	C127	0.07052
C124	H65	0.05662
C124	C125	0.06776
C124	C130	0.10261
C125	H66	0.07114
C126	N53	0.10983
C127	H67	0.05657
C128	C129	0.06889
C128	N54	0.08419
C129	C130	0.08243
C130	C132	0.07505
C131	C170	0.07369
Ni12	N24	0.10603
O45	C144	0.07652
O46	C143	0.07788
O47	C144	0.09443
O48	C143	0.09596
N23	C138	0.07943
N23	C139	0.10217
N24	C137	0.07870
N24	C140	0.10095
C133	C134	0.10500
C133	C138	0.06824
C134	C135	0.08303
C134	C167	0.07369
C135	H70	0.07288
C135	C139	0.07052
C136	C137	0.06776
C136	C142	0.10261
C137	N56	0.10933
C138	N55	0.10983
C139	H73	0.05657
C140	H74	0.05598
C140	C141	0.06889
C141	H75	0.07087
C141	C142	0.08243
C143	C158	0.07369
Ni13	N25	0.10740
Ni13	N26	0.10603
Ni13	O53	0.13634
Ni13	O54	0.13347
Ni13	O55	0.09944
Ni13	O56	0.09905
O49	C156	0.07652
O50	C155	0.07788
O50	Ni14	0.13347
O51	Ni14	0.09944
N25	C150	0.07943
N25	C151	0.10217
N26	C149	0.07870
N26	C152	0.10095
C145	H76	0.05745
C145	C146	0.10500
C145	C150	0.06824
C146	C147	0.08303
C147	C151	0.07052
C148	H78	0.05662
C148	C149	0.06776
C148	C154	0.10261
C149	N58	0.10933
C150	N57	0.10983
C151	H79	0.05657
C152	H80	0.05598
C152	C153	0.06889
C153	C154	0.08243
C154	C156	0.07505
Ni14	N28	0.10603
O53	C168	0.07652
O54	C167	0.07788
O55	C168	0.09443
O56	C167	0.09596
N27	C162	0.07943
N27	C163	0.10217
N28	C161	0.07870
N28	C164	0.10095
C157	C158	0.10500
C157	C162	0.06824
C157	H92	0.05745
H82	C181	0.05745
C158	C159	0.08303
C159	H83	0.07288
C159	C163	0.07052
C160	C161	0.06776
C160	C166	0.10261
C160	H94	0.05662
H84	C184	0.05662
C163	N59	0.08540
C164	C165	0.06889
C164	N60	0.08419
C165	H85	0.07087
C165	C166	0.08243
C166	C192	0.07505
C168	C190	0.07505
Ni15	N29	0.10740
Ni15	N30	0.10603
Ni15	O61	0.13634
Ni15	O62	0.13347
Ni15	O63	0.09944
Ni15	O64	0.09905
O57	C180	0.07652
O58	C179	0.07788
O58	Ni16	0.13347
O59	Ni16	0.09944
N29	C174	0.07943
N29	C175	0.10217
N30	C173	0.07870
N30	C176	0.10095
C169	H86	0.05745
C169	C170	0.10500
C169	C174	0.06824
C170	C171	0.08303
C171	C175	0.07052
C172	H88	0.05662
C172	C173	0.06776
C172	C178	0.10261
C173	H89	0.07114
C174	N61	0.10983
C175	H90	0.05657
C176	C177	0.06889
C176	N62	0.08419
C177	C178	0.08243
C178	C180	0.07505
Ni16	N32	0.10603
O61	C192	0.07652
O62	C191	0.07788
O63	C192	0.09443
O64	C191	0.09596
N31	C186	0.07943
N31	C187	0.10217
N32	C185	0.07870
N32	C188	0.10095
C181	C182	0.10500
C181	C186	0.06824
C182	C183	0.08303
C183	H93	0.07288
C183	C187	0.07052
C184	C185	0.06776
C184	C190	0.10261
C187	N63	0.08540
C188	C189	0.06889
C188	N64	0.08419
C189	H96	0.07087
C189	C190	0.08243
N33	H97	0.05387
N33	H98	0.07880
N34	H99	0.05251
N34	H100	0.07697
N35	H101	0.04988
N35	H102	0.06474
N36	H103	0.04927
N36	H104	0.06433
N37	H105	0.05387
N37	H106	0.07880
N38	H107	0.05251
N38	H108	0.07697
N39	H109	0.05387
N39	H110	0.07880
N40	H111	0.04927
N40	H112	0.06433
N41	H113	0.04988
N41	H114	0.06474
N42	H115	0.04927
N42	H116	0.06433
N43	H117	0.04988
N43	H118	0.06474
N44	H119	0.04927
N44	H120	0.06433
N45	H121	0.04988
N45	H122	0.06474
N46	H123	0.05251
N46	H124	0.07697
N47	H125	0.04988
N47	H126	0.06474
N48	H127	0.05251
N48	H128	0.07697
N49	H129	0.04988
N49	H130	0.06474
N50	H131	0.05251
N50	H132	0.07697
N51	H133	0.04988
N51	H134	0.06474
N52	H135	0.05251
N52	H136	0.07697
N53	H137	0.04988
N53	H138	0.06474
N54	H139	0.05251
N54	H140	0.07697
N55	H141	0.04988
N55	H142	0.06474
N56	H143	0.04927
N56	H144	0.06433
N57	H145	0.04988
N57	H146	0.06474
N58	H147	0.04927
N58	H148	0.06433
N59	H149	0.05387
N59	H150	0.07880
N60	H151	0.05251
N60	H152	0.07697
N61	H153	0.04988
N61	H154	0.06474
N62	H155	0.05251
N62	H156	0.07697
N63	H157	0.05387
N63	H158	0.07880
N64	H159	0.05251
N64	H160	0.07697
