data_NiPyC2_NiPyC2_aligned_CH2-CH3_NiPyC2_aligned_CH2-CH3_NiPyC2_aligned_CH2-CH3_NiPyC2_aligned_CH2-CH3_NiPyC2_aligned_CH2-CH3_NiPyC2_aligned_CH2-CH3_NiPyC2_aligned_CH2-CH3_NiPyC2_aligned_CH2-CH3_NiPyC2_aligned_CH2-CH3_NiPyC2_aligned_CH2-CH3_NiPyC2_aligned_CH2-CH3_NiPyC2_aligned_CH2-CH3_NiPyC2_aligned_CH2-CH3_NiPyC2_aligned_CH2-CH3_NiPyC2_aligned_CH2-CH3_NiPyC2_aligned_CH2-CH3_NiPyC2_aligned_CH2-CH3_NiPyC2_aligned_CH2-CH3_NiPyC2_aligned_CH2-CH3_NiPyC2_aligned_CH2-CH3_NiPyC2_aligned_CH2-CH3_NiPyC2_aligned_CH2-CH3_NiPyC2_aligned_CH2-CH3_NiPyC2_aligned_CH2-CH3_NiPyC2_aligned_CH2-CH3_NiPyC2_aligned_CH2-CH3_NiPyC2_aligned_CH2-CH3_NiPyC2_aligned_CH2-CH3_NiPyC2_aligned_CH2-CH3_NiPyC2_aligned_CH2-CH3_NiPyC2_aligned_CH2-CH3_NiPyC2_aligned_CH2-CH3_PM
_symmetry_space_group_name_H-M	'P1'
_cell_length_a	12.505600
_cell_length_b	25.046800
_cell_length_c	20.553600
_cell_angle_alpha	90.000000
_cell_angle_beta	91.269000
_cell_angle_gamma	90.000000
_symmetry_Int_Tables_number 1

loop_
_symmetry_equiv_pos_as_xyz
'x,y,z'

loop_
_atom_site_label
_atom_site_type_symbol
_atom_site_fract_x
_atom_site_fract_y
_atom_site_fract_z
Ni1	Ni	0.247400	0.376980	0.419715
O1	O	0.120650	0.174810	0.196450
O2	O	0.377450	0.066540	0.185100
O3	O	0.468450	0.176115	0.248650
O4	O	0.033250	0.059900	0.237100
N1	N	0.313950	0.421450	0.348100
N2	N	0.180550	0.323050	0.357550
C1	C	0.293900	0.479650	0.256700
H1	H	0.250100	0.493100	0.222050
C2	C	0.396600	0.499000	0.266850
C3	C	0.458550	0.477300	0.317700
H2	H	0.030100	0.488900	0.325250
C4	C	0.203850	0.259550	0.272050
H3	H	0.247550	0.245500	0.238900
C5	C	0.240150	0.301600	0.310850
H4	H	0.309550	0.315650	0.303950
C6	C	0.255750	0.440450	0.297500
C7	C	0.414250	0.438850	0.356850
H5	H	0.456650	0.424150	0.391300
C8	C	0.082250	0.302250	0.367300
C9	C	0.041300	0.260150	0.331300
H6	H	0.472300	0.246250	0.339550
C10	C	0.103950	0.238500	0.282300
C11	C	0.439000	0.044650	0.227500
C12	C	0.061000	0.193100	0.240750
Ni2	Ni	0.497400	0.123020	0.169715
O5	O	0.370650	0.325190	0.446450
O6	O	0.127450	0.433460	0.435100
O7	O	0.218450	0.323885	0.498650
O8	O	0.283250	0.440100	0.487100
N3	N	0.063950	0.078550	0.098100
N4	N	0.430550	0.176950	0.107550
C13	C	0.043900	0.020350	0.006700
H7	H	0.000100	0.006900	0.472050
C14	C	0.146600	0.001000	0.016850
C15	C	0.208550	0.022700	0.067700
H8	H	0.280100	0.011100	0.075250
C16	C	0.453850	0.240450	0.022050
H9	H	0.497550	0.254500	0.488900
C17	C	0.490150	0.198400	0.060850
C18	C	0.005750	0.059550	0.047500
H10	H	0.436050	0.073500	0.039550
C19	C	0.164250	0.061150	0.106850
H11	H	0.206650	0.075850	0.141300
C20	C	0.332250	0.197750	0.117300
C21	C	0.291300	0.239850	0.081300
H12	H	0.222300	0.253750	0.089550
C22	C	0.353950	0.261500	0.032300
C23	C	0.189000	0.455350	0.477500
C24	C	0.311000	0.306900	0.490750
Ni3	Ni	0.247400	0.376980	0.919715
O9	O	0.120650	0.174810	0.696450
O10	O	0.377450	0.066540	0.685100
O11	O	0.468450	0.176115	0.748650
O12	O	0.033250	0.059900	0.737100
N5	N	0.313950	0.421450	0.848100
N6	N	0.180550	0.323050	0.857550
C25	C	0.293900	0.479650	0.756700
H13	H	0.250100	0.493100	0.722050
C26	C	0.396600	0.499000	0.766850
C27	C	0.458550	0.477300	0.817700
H14	H	0.030100	0.488900	0.825250
C28	C	0.203850	0.259550	0.772050
H15	H	0.247550	0.245500	0.738900
C29	C	0.240150	0.301600	0.810850
H16	H	0.309550	0.315650	0.803950
C30	C	0.255750	0.440450	0.797500
H17	H	0.186050	0.426500	0.789550
C31	C	0.414250	0.438850	0.856850
C32	C	0.082250	0.302250	0.867300
C33	C	0.041300	0.260150	0.831300
H18	H	0.472300	0.246250	0.839550
C34	C	0.103950	0.238500	0.782300
C35	C	0.439000	0.044650	0.727500
C36	C	0.061000	0.193100	0.740750
Ni4	Ni	0.497400	0.123020	0.669715
O13	O	0.370650	0.325190	0.946450
O14	O	0.127450	0.433460	0.935100
O15	O	0.218450	0.323885	0.998650
O16	O	0.283250	0.440100	0.987100
N7	N	0.063950	0.078550	0.598100
N8	N	0.430550	0.176950	0.607550
C37	C	0.043900	0.020350	0.506700
H19	H	0.000100	0.006900	0.972050
C38	C	0.146600	0.001000	0.516850
C39	C	0.208550	0.022700	0.567700
H20	H	0.280100	0.011100	0.575250
C40	C	0.453850	0.240450	0.522050
H21	H	0.497550	0.254500	0.988900
C41	C	0.490150	0.198400	0.560850
H22	H	0.059550	0.184350	0.553950
C42	C	0.005750	0.059550	0.547500
C43	C	0.164250	0.061150	0.606850
C44	C	0.332250	0.197750	0.617300
C45	C	0.291300	0.239850	0.581300
H23	H	0.222300	0.253750	0.589550
C46	C	0.353950	0.261500	0.532300
C47	C	0.189000	0.455350	0.977500
C48	C	0.311000	0.306900	0.990750
Ni5	Ni	0.247400	0.876980	0.419715
O17	O	0.120650	0.674810	0.196450
O18	O	0.377450	0.566540	0.185100
O19	O	0.468450	0.676115	0.248650
O20	O	0.033250	0.559900	0.237100
N9	N	0.313950	0.921450	0.348100
N10	N	0.180550	0.823050	0.357550
C49	C	0.293900	0.979650	0.256700
H24	H	0.250100	0.993100	0.222050
C50	C	0.396600	0.999000	0.266850
C51	C	0.458550	0.977300	0.317700
H25	H	0.030100	0.988900	0.325250
C52	C	0.203850	0.759550	0.272050
H26	H	0.247550	0.745500	0.238900
C53	C	0.240150	0.801600	0.310850
H27	H	0.309550	0.815650	0.303950
C54	C	0.255750	0.940450	0.297500
H28	H	0.186050	0.926500	0.289550
C55	C	0.414250	0.938850	0.356850
C56	C	0.082250	0.802250	0.367300
C57	C	0.041300	0.760150	0.331300
H29	H	0.472300	0.746250	0.339550
C58	C	0.103950	0.738500	0.282300
C59	C	0.439000	0.544650	0.227500
C60	C	0.061000	0.693100	0.240750
Ni6	Ni	0.497400	0.623020	0.169715
O21	O	0.370650	0.825190	0.446450
O22	O	0.127450	0.933460	0.435100
O23	O	0.218450	0.823885	0.498650
O24	O	0.283250	0.940100	0.487100
N11	N	0.063950	0.578550	0.098100
N12	N	0.430550	0.676950	0.107550
C61	C	0.043900	0.520350	0.006700
H30	H	0.000100	0.506900	0.472050
C62	C	0.146600	0.501000	0.016850
C63	C	0.208550	0.522700	0.067700
H31	H	0.280100	0.511100	0.075250
C64	C	0.453850	0.740450	0.022050
H32	H	0.497550	0.754500	0.488900
C65	C	0.490150	0.698400	0.060850
C66	C	0.005750	0.559550	0.047500
H33	H	0.436050	0.573500	0.039550
C67	C	0.164250	0.561150	0.106850
H34	H	0.206650	0.575850	0.141300
C68	C	0.332250	0.697750	0.117300
C69	C	0.291300	0.739850	0.081300
H35	H	0.222300	0.753750	0.089550
C70	C	0.353950	0.761500	0.032300
C71	C	0.189000	0.955350	0.477500
C72	C	0.311000	0.806900	0.490750
Ni7	Ni	0.247400	0.876980	0.919715
O25	O	0.120650	0.674810	0.696450
O26	O	0.377450	0.566540	0.685100
O27	O	0.468450	0.676115	0.748650
O28	O	0.033250	0.559900	0.737100
N13	N	0.313950	0.921450	0.848100
N14	N	0.180550	0.823050	0.857550
C73	C	0.293900	0.979650	0.756700
H36	H	0.250100	0.993100	0.722050
C74	C	0.396600	0.999000	0.766850
C75	C	0.458550	0.977300	0.817700
H37	H	0.030100	0.988900	0.825250
C76	C	0.203850	0.759550	0.772050
H38	H	0.247550	0.745500	0.738900
C77	C	0.240150	0.801600	0.810850
C78	C	0.255750	0.940450	0.797500
C79	C	0.414250	0.938850	0.856850
H39	H	0.456650	0.924150	0.891300
C80	C	0.082250	0.802250	0.867300
H40	H	0.039650	0.817300	0.900350
C81	C	0.041300	0.760150	0.831300
H41	H	0.472300	0.746250	0.839550
C82	C	0.103950	0.738500	0.782300
C83	C	0.439000	0.544650	0.727500
C84	C	0.061000	0.693100	0.740750
Ni8	Ni	0.497400	0.623020	0.669715
O29	O	0.370650	0.825190	0.946450
O30	O	0.127450	0.933460	0.935100
O31	O	0.218450	0.823885	0.998650
O32	O	0.283250	0.940100	0.987100
N15	N	0.063950	0.578550	0.598100
N16	N	0.430550	0.676950	0.607550
C85	C	0.043900	0.520350	0.506700
H42	H	0.000100	0.506900	0.972050
C86	C	0.146600	0.501000	0.516850
C87	C	0.208550	0.522700	0.567700
H43	H	0.280100	0.511100	0.575250
C88	C	0.453850	0.740450	0.522050
H44	H	0.497550	0.754500	0.988900
C89	C	0.490150	0.698400	0.560850
H45	H	0.059550	0.684350	0.553950
C90	C	0.005750	0.559550	0.547500
H46	H	0.436050	0.573500	0.539550
C91	C	0.164250	0.561150	0.606850
H47	H	0.206650	0.575850	0.641300
C92	C	0.332250	0.697750	0.617300
H48	H	0.289650	0.682700	0.650350
C93	C	0.291300	0.739850	0.581300
H49	H	0.222300	0.753750	0.589550
C94	C	0.353950	0.761500	0.532300
C95	C	0.189000	0.955350	0.977500
C96	C	0.311000	0.806900	0.990750
Ni9	Ni	0.747400	0.376980	0.419715
O33	O	0.620650	0.174810	0.196450
O34	O	0.877450	0.066540	0.185100
O35	O	0.968450	0.176115	0.248650
O36	O	0.533250	0.059900	0.237100
N17	N	0.813950	0.421450	0.348100
N18	N	0.680550	0.323050	0.357550
C97	C	0.793900	0.479650	0.256700
H50	H	0.750100	0.493100	0.222050
C98	C	0.896600	0.499000	0.266850
C99	C	0.958550	0.477300	0.317700
H51	H	0.530100	0.488900	0.325250
C100	C	0.703850	0.259550	0.272050
H52	H	0.747550	0.245500	0.238900
C101	C	0.740150	0.301600	0.310850
C102	C	0.755750	0.440450	0.297500
H53	H	0.686050	0.426500	0.289550
C103	C	0.914250	0.438850	0.356850
C104	C	0.582250	0.302250	0.367300
H54	H	0.539650	0.317300	0.400350
C105	C	0.541300	0.260150	0.331300
H55	H	0.972300	0.246250	0.339550
C106	C	0.603950	0.238500	0.282300
C107	C	0.939000	0.044650	0.227500
C108	C	0.561000	0.193100	0.240750
Ni10	Ni	0.997400	0.123020	0.169715
O37	O	0.870650	0.325190	0.446450
O38	O	0.627450	0.433460	0.435100
O39	O	0.718450	0.323885	0.498650
O40	O	0.783250	0.440100	0.487100
N19	N	0.563950	0.078550	0.098100
N20	N	0.930550	0.176950	0.107550
C109	C	0.543900	0.020350	0.006700
H56	H	0.500100	0.006900	0.472050
C110	C	0.646600	0.001000	0.016850
C111	C	0.708550	0.022700	0.067700
H57	H	0.780100	0.011100	0.075250
C112	C	0.953850	0.240450	0.022050
H58	H	0.997550	0.254500	0.488900
C113	C	0.990150	0.198400	0.060850
H59	H	0.559550	0.184350	0.053950
C114	C	0.505750	0.059550	0.047500
C115	C	0.664250	0.061150	0.106850
C116	C	0.832250	0.197750	0.117300
H60	H	0.789650	0.182700	0.150350
C117	C	0.791300	0.239850	0.081300
H61	H	0.722300	0.253750	0.089550
C118	C	0.853950	0.261500	0.032300
C119	C	0.689000	0.455350	0.477500
C120	C	0.811000	0.306900	0.490750
Ni11	Ni	0.747400	0.376980	0.919715
O41	O	0.620650	0.174810	0.696450
O42	O	0.877450	0.066540	0.685100
O43	O	0.968450	0.176115	0.748650
O44	O	0.533250	0.059900	0.737100
N21	N	0.813950	0.421450	0.848100
N22	N	0.680550	0.323050	0.857550
C121	C	0.793900	0.479650	0.756700
H62	H	0.750100	0.493100	0.722050
C122	C	0.896600	0.499000	0.766850
C123	C	0.958550	0.477300	0.817700
H63	H	0.530100	0.488900	0.825250
C124	C	0.703850	0.259550	0.772050
H64	H	0.747550	0.245500	0.738900
C125	C	0.740150	0.301600	0.810850
C126	C	0.755750	0.440450	0.797500
H65	H	0.686050	0.426500	0.789550
C127	C	0.914250	0.438850	0.856850
C128	C	0.582250	0.302250	0.867300
H66	H	0.539650	0.317300	0.900350
C129	C	0.541300	0.260150	0.831300
H67	H	0.972300	0.246250	0.839550
C130	C	0.603950	0.238500	0.782300
C131	C	0.939000	0.044650	0.727500
C132	C	0.561000	0.193100	0.740750
Ni12	Ni	0.997400	0.123020	0.669715
O45	O	0.870650	0.325190	0.946450
O46	O	0.627450	0.433460	0.935100
O47	O	0.718450	0.323885	0.998650
O48	O	0.783250	0.440100	0.987100
N23	N	0.563950	0.078550	0.598100
N24	N	0.930550	0.176950	0.607550
C133	C	0.543900	0.020350	0.506700
H68	H	0.500100	0.006900	0.972050
C134	C	0.646600	0.001000	0.516850
C135	C	0.708550	0.022700	0.567700
H69	H	0.780100	0.011100	0.575250
C136	C	0.953850	0.240450	0.522050
H70	H	0.997550	0.254500	0.988900
C137	C	0.990150	0.198400	0.560850
H71	H	0.559550	0.184350	0.553950
C138	C	0.505750	0.059550	0.547500
H72	H	0.936050	0.073500	0.539550
C139	C	0.664250	0.061150	0.606850
H73	H	0.706650	0.075850	0.641300
C140	C	0.832250	0.197750	0.617300
C141	C	0.791300	0.239850	0.581300
H74	H	0.722300	0.253750	0.589550
C142	C	0.853950	0.261500	0.532300
C143	C	0.689000	0.455350	0.977500
C144	C	0.811000	0.306900	0.990750
Ni13	Ni	0.747400	0.876980	0.419715
O49	O	0.620650	0.674810	0.196450
O50	O	0.877450	0.566540	0.185100
O51	O	0.968450	0.676115	0.248650
O52	O	0.533250	0.559900	0.237100
N25	N	0.813950	0.921450	0.348100
N26	N	0.680550	0.823050	0.357550
C145	C	0.793900	0.979650	0.256700
H75	H	0.750100	0.993100	0.222050
C146	C	0.896600	0.999000	0.266850
C147	C	0.958550	0.977300	0.317700
H76	H	0.530100	0.988900	0.325250
C148	C	0.703850	0.759550	0.272050
H77	H	0.747550	0.745500	0.238900
C149	C	0.740150	0.801600	0.310850
H78	H	0.809550	0.815650	0.303950
C150	C	0.755750	0.940450	0.297500
C151	C	0.914250	0.938850	0.356850
H79	H	0.956650	0.924150	0.391300
C152	C	0.582250	0.802250	0.367300
C153	C	0.541300	0.760150	0.331300
H80	H	0.972300	0.746250	0.339550
C154	C	0.603950	0.738500	0.282300
C155	C	0.939000	0.544650	0.227500
C156	C	0.561000	0.693100	0.240750
Ni14	Ni	0.997400	0.623020	0.169715
O53	O	0.870650	0.825190	0.446450
O54	O	0.627450	0.933460	0.435100
O55	O	0.718450	0.823885	0.498650
O56	O	0.783250	0.940100	0.487100
N27	N	0.563950	0.578550	0.098100
N28	N	0.930550	0.676950	0.107550
C157	C	0.543900	0.520350	0.006700
H81	H	0.500100	0.506900	0.472050
C158	C	0.646600	0.501000	0.016850
C159	C	0.708550	0.522700	0.067700
H82	H	0.780100	0.511100	0.075250
C160	C	0.953850	0.740450	0.022050
H83	H	0.997550	0.754500	0.488900
C161	C	0.990150	0.698400	0.060850
H84	H	0.559550	0.684350	0.053950
C162	C	0.505750	0.559550	0.047500
C163	C	0.664250	0.561150	0.106850
C164	C	0.832250	0.697750	0.117300
H85	H	0.789650	0.682700	0.150350
C165	C	0.791300	0.739850	0.081300
H86	H	0.722300	0.753750	0.089550
C166	C	0.853950	0.761500	0.032300
C167	C	0.689000	0.955350	0.477500
C168	C	0.811000	0.806900	0.490750
Ni15	Ni	0.747400	0.876980	0.919715
O57	O	0.620650	0.674810	0.696450
O58	O	0.877450	0.566540	0.685100
O59	O	0.968450	0.676115	0.748650
O60	O	0.533250	0.559900	0.737100
N29	N	0.813950	0.921450	0.848100
N30	N	0.680550	0.823050	0.857550
C169	C	0.793900	0.979650	0.756700
H87	H	0.750100	0.993100	0.722050
C170	C	0.896600	0.999000	0.766850
C171	C	0.958550	0.977300	0.817700
H88	H	0.530100	0.988900	0.825250
C172	C	0.703850	0.759550	0.772050
H89	H	0.747550	0.745500	0.738900
C173	C	0.740150	0.801600	0.810850
C174	C	0.755750	0.940450	0.797500
C175	C	0.914250	0.938850	0.856850
H90	H	0.956650	0.924150	0.891300
C176	C	0.582250	0.802250	0.867300
H91	H	0.539650	0.817300	0.900350
C177	C	0.541300	0.760150	0.831300
H92	H	0.972300	0.746250	0.839550
C178	C	0.603950	0.738500	0.782300
C179	C	0.939000	0.544650	0.727500
C180	C	0.561000	0.693100	0.740750
Ni16	Ni	0.997400	0.623020	0.669715
O61	O	0.870650	0.825190	0.946450
O62	O	0.627450	0.933460	0.935100
O63	O	0.718450	0.823885	0.998650
O64	O	0.783250	0.940100	0.987100
N31	N	0.563950	0.578550	0.598100
N32	N	0.930550	0.676950	0.607550
C181	C	0.543900	0.520350	0.506700
H93	H	0.500100	0.506900	0.972050
C182	C	0.646600	0.501000	0.516850
C183	C	0.708550	0.522700	0.567700
H94	H	0.780100	0.511100	0.575250
C184	C	0.953850	0.740450	0.522050
H95	H	0.997550	0.754500	0.988900
C185	C	0.990150	0.698400	0.560850
C186	C	0.505750	0.559550	0.547500
C187	C	0.664250	0.561150	0.606850
C188	C	0.832250	0.697750	0.617300
C189	C	0.791300	0.739850	0.581300
H96	H	0.722300	0.753750	0.589550
C190	C	0.853950	0.761500	0.532300
C191	C	0.689000	0.955350	0.977500
C192	C	0.811000	0.806900	0.990750
C193	C	0.140150	0.417447	0.283976
C194	C	0.102409	0.374171	0.330782
H97	H	0.081688	0.450753	0.286505
H98	H	0.137194	0.399768	0.234383
H99	H	0.100000	0.389885	0.381266
H100	H	0.020330	0.361310	0.316208
H101	H	0.155683	0.338738	0.328979
C195	C	0.011581	0.327263	0.422197
C196	C	0.060944	0.373841	0.460592
H102	H	-0.064072	0.342226	0.399437
H103	H	-0.006816	0.295549	0.458061
H104	H	0.078035	0.407834	0.427704
H105	H	0.003634	0.387746	0.497467
H106	H	0.135474	0.361009	0.486515
C197	C	-0.109850	0.082553	0.033976
C198	C	-0.147591	0.125829	0.080782
H107	H	-0.168312	0.049247	0.036505
H108	H	-0.112806	0.100232	-0.015617
H109	H	-0.150000	0.110115	0.131266
H110	H	-0.229670	0.138690	0.066208
H111	H	-0.094317	0.161262	0.078979
C199	C	0.261581	0.172737	0.172197
C200	C	0.310944	0.126159	0.210592
H112	H	0.185928	0.157774	0.149437
H113	H	0.243184	0.204451	0.208061
H114	H	0.328035	0.092166	0.177704
H115	H	0.253634	0.112254	0.247467
H116	H	0.385474	0.138991	0.236515
C201	C	0.485164	0.414622	0.914112
C202	C	0.431894	0.372112	0.955977
H117	H	0.557124	0.395827	0.893120
H118	H	0.510193	0.447512	0.947384
H119	H	0.408040	0.337072	0.925872
H120	H	0.489485	0.358295	0.994289
H121	H	0.360959	0.388921	0.980309
C203	C	0.011581	0.327263	0.922197
C204	C	0.060944	0.373841	0.960592
H122	H	-0.064072	0.342226	0.899437
H123	H	-0.006816	0.295549	0.958061
H124	H	0.078035	0.407834	0.927704
H125	H	0.003634	0.387746	0.997467
H126	H	0.135474	0.361009	0.986515
C205	C	0.235164	0.085378	0.664112
C206	C	0.181894	0.127888	0.705977
H127	H	0.307124	0.104173	0.643120
H128	H	0.260193	0.052488	0.697384
H129	H	0.158040	0.162928	0.675872
H130	H	0.239485	0.141705	0.744289
H131	H	0.110959	0.111079	0.730309
C207	C	0.261581	0.172737	0.672197
C208	C	0.310944	0.126159	0.710592
H132	H	0.185928	0.157774	0.649437
H133	H	0.243184	0.204451	0.708061
H134	H	0.328035	0.092166	0.677704
H135	H	0.253634	0.112254	0.747467
H136	H	0.385474	0.138991	0.736515
C209	C	0.485164	0.914622	0.414111
C210	C	0.431891	0.872114	0.455979
H137	H	0.510196	0.947512	0.447383
H138	H	0.557123	0.895826	0.393120
H139	H	0.360959	0.888925	0.480311
H140	H	0.489483	0.858297	0.494292
H141	H	0.408034	0.837074	0.425876
C211	C	0.011581	0.827263	0.422197
C212	C	0.060944	0.873841	0.460592
H142	H	-0.064072	0.842226	0.399437
H143	H	-0.006816	0.795549	0.458061
H144	H	0.078035	0.907834	0.427704
H145	H	0.003634	0.887746	0.497467
H146	H	0.135474	0.861009	0.486515
C213	C	-0.109850	0.582553	0.033976
C214	C	-0.147591	0.625829	0.080782
H147	H	-0.168312	0.549247	0.036505
H148	H	-0.112806	0.600232	-0.015617
H149	H	-0.150000	0.610115	0.131266
H150	H	-0.229670	0.638690	0.066208
H151	H	-0.094317	0.661262	0.078979
C215	C	0.261581	0.672737	0.172196
C216	C	0.310946	0.626161	0.210595
H152	H	0.243182	0.704452	0.208059
H153	H	0.185929	0.657772	0.149437
H154	H	0.385475	0.638996	0.236518
H155	H	0.253637	0.612256	0.247470
H156	H	0.328041	0.592167	0.177709
C217	C	0.140150	0.917447	0.783976
C218	C	0.102409	0.874171	0.830782
H157	H	0.081688	0.950753	0.786505
H158	H	0.137194	0.899768	0.734383
H159	H	0.100000	0.889885	0.881266
H160	H	0.020330	0.861310	0.816208
H161	H	0.155683	0.838738	0.828979
C219	C	0.355414	0.824522	0.799113
C220	C	0.391068	0.870745	0.843224
H162	H	0.358926	0.839236	0.748201
H163	H	0.414657	0.791903	0.806565
H164	H	0.336942	0.905568	0.836483
H165	H	0.473078	0.883335	0.830335
H166	H	0.392851	0.858085	0.895033
C221	C	-0.109850	0.582553	0.533976
C222	C	-0.147591	0.625829	0.580782
H167	H	-0.168312	0.549247	0.536505
H168	H	-0.112806	0.600232	0.484383
H169	H	-0.150000	0.610115	0.631266
H170	H	-0.229670	0.638690	0.566208
H171	H	-0.094317	0.661262	0.578979
C223	C	0.605414	0.675478	0.549113
C224	C	0.641068	0.629255	0.593224
H172	H	0.608926	0.660764	0.498201
H173	H	0.664657	0.708097	0.556565
H174	H	0.586942	0.594432	0.586483
H175	H	0.723078	0.616665	0.580335
H176	H	0.642851	0.641915	0.645033
C225	C	0.985164	0.414622	0.414112
C226	C	0.931894	0.372112	0.455977
H177	H	1.057124	0.395827	0.393120
H178	H	1.010193	0.447512	0.447384
H179	H	0.908040	0.337072	0.425872
H180	H	0.989485	0.358295	0.494289
H181	H	0.860959	0.388921	0.480309
C227	C	0.855414	0.324522	0.299113
C228	C	0.891071	0.370743	0.343227
H182	H	0.914655	0.291903	0.306563
H183	H	0.858925	0.339237	0.248202
H184	H	0.892853	0.358081	0.395035
H185	H	0.973081	0.383332	0.330338
H186	H	0.836946	0.405567	0.336488
C229	C	0.735164	0.085378	0.164112
C230	C	0.681894	0.127888	0.205977
H187	H	0.807124	0.104173	0.143120
H188	H	0.760193	0.052488	0.197384
H189	H	0.658040	0.162928	0.175872
H190	H	0.739485	0.141705	0.244289
H191	H	0.610959	0.111079	0.230309
C231	C	1.105414	0.175478	0.049113
C232	C	1.141068	0.129255	0.093224
H192	H	1.108926	0.160764	-0.001799
H193	H	1.164657	0.208097	0.056565
H194	H	1.086942	0.094432	0.086483
H195	H	1.223078	0.116665	0.080335
H196	H	1.142851	0.141915	0.145033
C233	C	0.985164	0.414622	0.914112
C234	C	0.931894	0.372112	0.955977
H197	H	1.057124	0.395827	0.893120
H198	H	1.010193	0.447512	0.947384
H199	H	0.908040	0.337072	0.925872
H200	H	0.989485	0.358295	0.994289
H201	H	0.860959	0.388921	0.980309
C235	C	0.855414	0.324522	0.799113
C236	C	0.891068	0.370745	0.843224
H202	H	0.858926	0.339236	0.748201
H203	H	0.914657	0.291903	0.806565
H204	H	0.836942	0.405568	0.836483
H205	H	0.973078	0.383335	0.830335
H206	H	0.892851	0.358085	0.895033
C237	C	0.390150	0.082553	0.533976
C238	C	0.352409	0.125829	0.580782
H207	H	0.331688	0.049247	0.536505
H208	H	0.387194	0.100232	0.484383
H209	H	0.350000	0.110115	0.631266
H210	H	0.270330	0.138690	0.566208
H211	H	0.405683	0.161262	0.578979
C239	C	0.761581	0.172737	0.672197
C240	C	0.810944	0.126159	0.710592
H212	H	0.685928	0.157774	0.649437
H213	H	0.743184	0.204451	0.708061
H214	H	0.828035	0.092166	0.677704
H215	H	0.753634	0.112254	0.747467
H216	H	0.885474	0.138991	0.736515
C241	C	0.640150	0.917447	0.283976
C242	C	0.602409	0.874171	0.330782
H217	H	0.581688	0.950753	0.286505
H218	H	0.637194	0.899768	0.234383
H219	H	0.600000	0.889885	0.381266
H220	H	0.520330	0.861310	0.316208
H221	H	0.655683	0.838738	0.328979
C243	C	0.511581	0.827263	0.422196
C244	C	0.560946	0.873839	0.460595
H222	H	0.493182	0.795548	0.458059
H223	H	0.435929	0.842228	0.399437
H224	H	0.635475	0.861004	0.486518
H225	H	0.503637	0.887744	0.497470
H226	H	0.578041	0.907833	0.427709
C245	C	0.735164	0.585378	0.164112
C246	C	0.681894	0.627888	0.205977
H227	H	0.807124	0.604173	0.143120
H228	H	0.760193	0.552488	0.197384
H229	H	0.658040	0.662928	0.175872
H230	H	0.739485	0.641705	0.244289
H231	H	0.610959	0.611079	0.230309
C247	C	1.105414	0.675478	0.049113
C248	C	1.141068	0.629255	0.093224
H232	H	1.108926	0.660764	-0.001799
H233	H	1.164657	0.708097	0.056565
H234	H	1.086942	0.594432	0.086483
H235	H	1.223078	0.616665	0.080335
H236	H	1.142851	0.641915	0.145033
C249	C	0.640150	0.917447	0.783976
C250	C	0.602409	0.874171	0.830782
H237	H	0.581688	0.950753	0.786505
H238	H	0.637194	0.899768	0.734383
H239	H	0.600000	0.889885	0.881266
H240	H	0.520330	0.861310	0.816208
H241	H	0.655683	0.838738	0.828979
C251	C	0.855414	0.824522	0.799113
C252	C	0.891068	0.870745	0.843224
H242	H	0.858926	0.839236	0.748201
H243	H	0.914657	0.791903	0.806565
H244	H	0.836942	0.905568	0.836483
H245	H	0.973078	0.883335	0.830335
H246	H	0.892851	0.858085	0.895033
C253	C	0.735164	0.585378	0.664112
C254	C	0.681894	0.627888	0.705977
H247	H	0.807124	0.604173	0.643120
H248	H	0.760193	0.552488	0.697384
H249	H	0.658040	0.662928	0.675872
H250	H	0.739485	0.641705	0.744289
H251	H	0.610959	0.611079	0.730309
C255	C	0.761581	0.672737	0.672196
C256	C	0.810946	0.626161	0.710595
H252	H	0.743182	0.704452	0.708059
H253	H	0.685929	0.657772	0.649437
H254	H	0.885475	0.638996	0.736518
H255	H	0.753637	0.612256	0.747470
H256	H	0.828041	0.592167	0.677709

loop_
_geom_bond_atom_site_label_1
_geom_bond_atom_site_label_2
_geom_bond_distance
Ni1	N1	0.10740
Ni1	N2	0.10603
Ni1	O5	0.13634
Ni1	O6	0.13347
Ni1	O7	0.09944
Ni1	O8	0.09905
O1	C12	0.07652
O1	Ni10	0.13634
O2	C11	0.07788
O2	Ni2	0.13347
O3	Ni2	0.09944
O3	C108	0.09443
O4	C107	0.09596
O4	Ni10	0.09905
N1	C6	0.07943
N1	C7	0.10217
N2	C5	0.07870
N2	C8	0.10095
C1	H1	0.05745
C1	C2	0.10500
C1	C6	0.06824
C2	C3	0.08303
C2	C59	0.07369
C3	C7	0.07052
C3	H51	0.07288
H2	C99	0.07288
C4	H3	0.05662
C4	C5	0.06776
C4	C10	0.10261
C5	H4	0.07114
C6	C193	0.11864
C7	H5	0.05657
C8	C9	0.06889
C8	C195	0.09292
C9	C10	0.08243
C9	H55	0.07087
H6	C105	0.07087
C10	C12	0.07505
C11	C50	0.07369
C11	O36	0.09596
C12	O35	0.09443
Ni2	N4	0.10603
Ni2	O33	0.13634
Ni2	O36	0.09905
Ni2	N19	0.10740
O5	C24	0.07652
O6	C23	0.07788
O7	C24	0.09443
O8	C23	0.09596
N3	C18	0.07943
N3	C19	0.10217
N3	Ni10	0.10740
N4	C17	0.07870
N4	C20	0.10095
C13	C14	0.10500
C13	C18	0.06824
C13	H19	0.05745
H7	C37	0.05745
C14	C15	0.08303
C14	C95	0.07369
C15	H8	0.07288
C15	C19	0.07052
C16	C17	0.06776
C16	C22	0.10261
C16	H21	0.05662
H9	C40	0.05662
C17	H59	0.07114
C18	C197	0.11864
H10	C114	0.07153
C19	H11	0.05657
C20	C21	0.06889
C20	C199	0.09292
C21	H12	0.07087
C21	C22	0.08243
C22	C48	0.07505
C23	C86	0.07369
C24	C46	0.07505
Ni3	N5	0.10740
Ni3	N6	0.10603
Ni3	O13	0.13634
Ni3	O14	0.13347
Ni3	O15	0.09944
Ni3	O16	0.09905
O9	C36	0.07652
O9	Ni12	0.13634
O10	C35	0.07788
O10	Ni4	0.13347
O11	Ni4	0.09944
O11	C132	0.09443
O12	C131	0.09596
O12	Ni12	0.09905
N5	C30	0.07943
N5	C31	0.10217
N6	C29	0.07870
N6	C32	0.10095
C25	H13	0.05745
C25	C26	0.10500
C25	C30	0.06824
C26	C27	0.08303
C26	C83	0.07369
C27	C31	0.07052
C27	H63	0.07288
H14	C123	0.07288
C28	H15	0.05662
C28	C29	0.06776
C28	C34	0.10261
C29	H16	0.07114
C30	H17	0.07153
C31	C201	0.09431
C32	C33	0.06889
C32	C203	0.09292
C33	C34	0.08243
C33	H67	0.07087
H18	C129	0.07087
C34	C36	0.07505
C35	C74	0.07369
C35	O44	0.09596
C36	O43	0.09443
Ni4	N8	0.10603
Ni4	O41	0.13634
Ni4	O44	0.09905
Ni4	N23	0.10740
O13	C48	0.07652
O14	C47	0.07788
O15	C48	0.09443
O16	C47	0.09596
N7	C42	0.07943
N7	C43	0.10217
N7	Ni12	0.10740
N8	C41	0.07870
N8	C44	0.10095
C37	C38	0.10500
C37	C42	0.06824
C38	C39	0.08303
C38	C71	0.07369
C39	H20	0.07288
C39	C43	0.07052
C40	C41	0.06776
C40	C46	0.10261
C41	H71	0.07114
H22	C137	0.07114
C42	H72	0.07153
C43	C205	0.09431
C44	C45	0.06889
C44	C207	0.09292
C45	H23	0.07087
C45	C46	0.08243
C47	C62	0.07369
Ni5	N9	0.10740
Ni5	N10	0.10603
Ni5	O21	0.13634
Ni5	O22	0.13347
Ni5	O23	0.09944
Ni5	O24	0.09905
O17	C60	0.07652
O17	Ni14	0.13634
O18	C59	0.07788
O18	Ni6	0.13347
O19	Ni6	0.09944
O19	C156	0.09443
O20	C155	0.09596
O20	Ni14	0.09905
N9	C54	0.07943
N9	C55	0.10217
N10	C53	0.07870
N10	C56	0.10095
C49	H24	0.05745
C49	C50	0.10500
C49	C54	0.06824
C50	C51	0.08303
C51	C55	0.07052
C51	H76	0.07288
H25	C147	0.07288
C52	H26	0.05662
C52	C53	0.06776
C52	C58	0.10261
C53	H27	0.07114
C54	H28	0.07153
C55	C209	0.09431
C56	C57	0.06889
C56	C211	0.09292
C57	C58	0.08243
C57	H80	0.07087
H29	C153	0.07087
C58	C60	0.07505
C59	O52	0.09596
C60	O51	0.09443
Ni6	N12	0.10603
Ni6	O49	0.13634
Ni6	O52	0.09905
Ni6	N27	0.10740
O21	C72	0.07652
O22	C71	0.07788
O23	C72	0.09443
O24	C71	0.09596
N11	C66	0.07943
N11	C67	0.10217
N11	Ni14	0.10740
N12	C65	0.07870
N12	C68	0.10095
C61	C62	0.10500
C61	C66	0.06824
C61	H42	0.05745
H30	C85	0.05745
C62	C63	0.08303
C63	H31	0.07288
C63	C67	0.07052
C64	C65	0.06776
C64	C70	0.10261
C64	H44	0.05662
H32	C88	0.05662
C65	H84	0.07114
C66	C213	0.11864
H33	C162	0.07153
C67	H34	0.05657
C68	C69	0.06889
C68	C215	0.09292
C69	H35	0.07087
C69	C70	0.08243
C70	C96	0.07505
C72	C94	0.07505
Ni7	N13	0.10740
Ni7	N14	0.10603
Ni7	O29	0.13634
Ni7	O30	0.13347
Ni7	O31	0.09944
Ni7	O32	0.09905
O25	C84	0.07652
O25	Ni16	0.13634
O26	C83	0.07788
O26	Ni8	0.13347
O27	Ni8	0.09944
O27	C180	0.09443
O28	C179	0.09596
O28	Ni16	0.09905
N13	C78	0.07943
N13	C79	0.10217
N14	C77	0.07870
N14	C80	0.10095
C73	H36	0.05745
C73	C74	0.10500
C73	C78	0.06824
C74	C75	0.08303
C75	C79	0.07052
C75	H88	0.07288
H37	C171	0.07288
C76	H38	0.05662
C76	C77	0.06776
C76	C82	0.10261
C77	C219	0.11811
C78	C217	0.11864
C79	H39	0.05657
C80	H40	0.05598
C80	C81	0.06889
C81	C82	0.08243
C81	H92	0.07087
H41	C177	0.07087
C82	C84	0.07505
C83	O60	0.09596
C84	O59	0.09443
Ni8	N16	0.10603
Ni8	O57	0.13634
Ni8	O60	0.09905
Ni8	N31	0.10740
O29	C96	0.07652
O30	C95	0.07788
O31	C96	0.09443
O32	C95	0.09596
N15	C90	0.07943
N15	C91	0.10217
N15	Ni16	0.10740
N16	C89	0.07870
N16	C92	0.10095
C85	C86	0.10500
C85	C90	0.06824
C86	C87	0.08303
C87	H43	0.07288
C87	C91	0.07052
C88	C89	0.06776
C88	C94	0.10261
C89	C223	0.11811
H45	C185	0.07114
C90	C221	0.11864
H46	C186	0.07153
C91	H47	0.05657
C92	H48	0.05598
C92	C93	0.06889
C93	H49	0.07087
C93	C94	0.08243
Ni9	N17	0.10740
Ni9	N18	0.10603
Ni9	O37	0.13634
Ni9	O38	0.13347
Ni9	O39	0.09944
Ni9	O40	0.09905
O33	C108	0.07652
O34	C107	0.07788
O34	Ni10	0.13347
O35	Ni10	0.09944
N17	C102	0.07943
N17	C103	0.10217
N18	C101	0.07870
N18	C104	0.10095
C97	H50	0.05745
C97	C98	0.10500
C97	C102	0.06824
C98	C99	0.08303
C98	C155	0.07369
C99	C103	0.07052
C100	H52	0.05662
C100	C101	0.06776
C100	C106	0.10261
C101	C227	0.11811
C102	H53	0.07153
C103	C225	0.09431
C104	H54	0.05598
C104	C105	0.06889
C105	C106	0.08243
C106	C108	0.07505
C107	C146	0.07369
Ni10	N20	0.10603
O37	C120	0.07652
O38	C119	0.07788
O39	C120	0.09443
O40	C119	0.09596
N19	C114	0.07943
N19	C115	0.10217
N20	C113	0.07870
N20	C116	0.10095
C109	C110	0.10500
C109	C114	0.06824
C109	H68	0.05745
H56	C133	0.05745
C110	C111	0.08303
C110	C191	0.07369
C111	H57	0.07288
C111	C115	0.07052
C112	C113	0.06776
C112	C118	0.10261
C112	H70	0.05662
H58	C136	0.05662
C113	C231	0.11811
C115	C229	0.09431
C116	H60	0.05598
C116	C117	0.06889
C117	H61	0.07087
C117	C118	0.08243
C118	C144	0.07505
C119	C182	0.07369
C120	C142	0.07505
Ni11	N21	0.10740
Ni11	N22	0.10603
Ni11	O45	0.13634
Ni11	O46	0.13347
Ni11	O47	0.09944
Ni11	O48	0.09905
O41	C132	0.07652
O42	C131	0.07788
O42	Ni12	0.13347
O43	Ni12	0.09944
N21	C126	0.07943
N21	C127	0.10217
N22	C125	0.07870
N22	C128	0.10095
C121	H62	0.05745
C121	C122	0.10500
C121	C126	0.06824
C122	C123	0.08303
C122	C179	0.07369
C123	C127	0.07052
C124	H64	0.05662
C124	C125	0.06776
C124	C130	0.10261
C125	C235	0.11811
C126	H65	0.07153
C127	C233	0.09431
C128	H66	0.05598
C128	C129	0.06889
C129	C130	0.08243
C130	C132	0.07505
C131	C170	0.07369
Ni12	N24	0.10603
O45	C144	0.07652
O46	C143	0.07788
O47	C144	0.09443
O48	C143	0.09596
N23	C138	0.07943
N23	C139	0.10217
N24	C137	0.07870
N24	C140	0.10095
C133	C134	0.10500
C133	C138	0.06824
C134	C135	0.08303
C134	C167	0.07369
C135	H69	0.07288
C135	C139	0.07052
C136	C137	0.06776
C136	C142	0.10261
C138	C237	0.11864
C139	H73	0.05657
C140	C141	0.06889
C140	C239	0.09292
C141	H74	0.07087
C141	C142	0.08243
C143	C158	0.07369
Ni13	N25	0.10740
Ni13	N26	0.10603
Ni13	O53	0.13634
Ni13	O54	0.13347
Ni13	O55	0.09944
Ni13	O56	0.09905
O49	C156	0.07652
O50	C155	0.07788
O50	Ni14	0.13347
O51	Ni14	0.09944
N25	C150	0.07943
N25	C151	0.10217
N26	C149	0.07870
N26	C152	0.10095
C145	H75	0.05745
C145	C146	0.10500
C145	C150	0.06824
C146	C147	0.08303
C147	C151	0.07052
C148	H77	0.05662
C148	C149	0.06776
C148	C154	0.10261
C149	H78	0.07114
C150	C241	0.11864
C151	H79	0.05657
C152	C153	0.06889
C152	C243	0.09292
C153	C154	0.08243
C154	C156	0.07505
Ni14	N28	0.10603
O53	C168	0.07652
O54	C167	0.07788
O55	C168	0.09443
O56	C167	0.09596
N27	C162	0.07943
N27	C163	0.10217
N28	C161	0.07870
N28	C164	0.10095
C157	C158	0.10500
C157	C162	0.06824
C157	H93	0.05745
H81	C181	0.05745
C158	C159	0.08303
C159	H82	0.07288
C159	C163	0.07052
C160	C161	0.06776
C160	C166	0.10261
C160	H95	0.05662
H83	C184	0.05662
C161	C247	0.11811
C163	C245	0.09431
C164	H85	0.05598
C164	C165	0.06889
C165	H86	0.07087
C165	C166	0.08243
C166	C192	0.07505
C168	C190	0.07505
Ni15	N29	0.10740
Ni15	N30	0.10603
Ni15	O61	0.13634
Ni15	O62	0.13347
Ni15	O63	0.09944
Ni15	O64	0.09905
O57	C180	0.07652
O58	C179	0.07788
O58	Ni16	0.13347
O59	Ni16	0.09944
N29	C174	0.07943
N29	C175	0.10217
N30	C173	0.07870
N30	C176	0.10095
C169	H87	0.05745
C169	C170	0.10500
C169	C174	0.06824
C170	C171	0.08303
C171	C175	0.07052
C172	H89	0.05662
C172	C173	0.06776
C172	C178	0.10261
C173	C251	0.11811
C174	C249	0.11864
C175	H90	0.05657
C176	H91	0.05598
C176	C177	0.06889
C177	C178	0.08243
C178	C180	0.07505
Ni16	N32	0.10603
O61	C192	0.07652
O62	C191	0.07788
O63	C192	0.09443
O64	C191	0.09596
N31	C186	0.07943
N31	C187	0.10217
N32	C185	0.07870
N32	C188	0.10095
C181	C182	0.10500
C181	C186	0.06824
C182	C183	0.08303
C183	H94	0.07288
C183	C187	0.07052
C184	C185	0.06776
C184	C190	0.10261
C187	C253	0.09431
C188	C189	0.06889
C188	C255	0.09292
C189	H96	0.07087
C189	C190	0.08243
C193	C194	0.07408
C193	H97	0.06733
C193	H98	0.05273
C194	H99	0.05293
C194	H100	0.08435
C194	H101	0.06401
C195	C196	0.07798
C195	H102	0.08041
C195	H103	0.05129
C196	H104	0.05029
C196	H105	0.06955
C196	H106	0.07995
C197	C198	0.07408
C197	H107	0.06733
C197	H108	0.05273
C198	H109	0.05293
C198	H110	0.08435
C198	H111	0.06401
C199	C200	0.07798
C199	H112	0.08041
C199	H113	0.05129
C200	H114	0.05029
C200	H115	0.06955
C200	H116	0.07995
C201	C202	0.07998
C201	H117	0.07728
C201	H118	0.05306
C202	H119	0.05199
C202	H120	0.07054
C202	H121	0.07685
C203	C204	0.07798
C203	H122	0.08041
C203	H123	0.05129
C204	H124	0.05029
C204	H125	0.06955
C204	H126	0.07995
C205	C206	0.07998
C205	H127	0.07728
C205	H128	0.05306
C206	H129	0.05199
C206	H130	0.07054
C206	H131	0.07685
C207	C208	0.07798
C207	H132	0.08041
C207	H133	0.05129
C208	H134	0.05029
C208	H135	0.06955
C208	H136	0.07995
C209	C210	0.07999
C209	H137	0.05306
C209	H138	0.07728
C210	H139	0.07685
C210	H140	0.07054
C210	H141	0.05199
C211	C212	0.07798
C211	H142	0.08041
C211	H143	0.05129
C212	H144	0.05029
C212	H145	0.06955
C212	H146	0.07995
C213	C214	0.07408
C213	H147	0.06733
C213	H148	0.05273
C214	H149	0.05293
C214	H150	0.08435
C214	H151	0.06401
C215	C216	0.07798
C215	H152	0.05129
C215	H153	0.08041
C216	H154	0.07995
C216	H155	0.06955
C216	H156	0.05029
C217	C218	0.07408
C217	H157	0.06733
C217	H158	0.05273
C218	H159	0.05293
C218	H160	0.08435
C218	H161	0.06401
C219	C220	0.07317
C219	H162	0.05311
C219	H163	0.06804
C220	H164	0.06471
C220	H165	0.08397
C220	H166	0.05336
C221	C222	0.07408
C221	H167	0.06733
C221	H168	0.05273
C222	H169	0.05293
C222	H170	0.08435
C222	H171	0.06401
C223	C224	0.07317
C223	H172	0.05311
C223	H173	0.06804
C224	H174	0.06471
C224	H175	0.08397
C224	H176	0.05336
C225	C226	0.07998
C225	H177	0.07728
C225	H178	0.05306
C226	H179	0.05199
C226	H180	0.07054
C226	H181	0.07685
C227	C228	0.07317
C227	H182	0.06804
C227	H183	0.05311
C228	H184	0.05336
C228	H185	0.08397
C228	H186	0.06471
C229	C230	0.07998
C229	H187	0.07728
C229	H188	0.05306
C230	H189	0.05199
C230	H190	0.07054
C230	H191	0.07685
C231	C232	0.07317
C231	H192	0.05311
C231	H193	0.06804
C232	H194	0.06471
C232	H195	0.08397
C232	H196	0.05336
C233	C234	0.07998
C233	H197	0.07728
C233	H198	0.05306
C234	H199	0.05199
C234	H200	0.07054
C234	H201	0.07685
C235	C236	0.07317
C235	H202	0.05311
C235	H203	0.06804
C236	H204	0.06471
C236	H205	0.08397
C236	H206	0.05336
C237	C238	0.07408
C237	H207	0.06733
C237	H208	0.05273
C238	H209	0.05293
C238	H210	0.08435
C238	H211	0.06401
C239	C240	0.07798
C239	H212	0.08041
C239	H213	0.05129
C240	H214	0.05029
C240	H215	0.06955
C240	H216	0.07995
C241	C242	0.07408
C241	H217	0.06733
C241	H218	0.05273
C242	H219	0.05293
C242	H220	0.08435
C242	H221	0.06401
C243	C244	0.07798
C243	H222	0.05129
C243	H223	0.08041
C244	H224	0.07995
C244	H225	0.06955
C244	H226	0.05029
C245	C246	0.07998
C245	H227	0.07728
C245	H228	0.05306
C246	H229	0.05199
C246	H230	0.07054
C246	H231	0.07685
C247	C248	0.07317
C247	H232	0.05311
C247	H233	0.06804
C248	H234	0.06471
C248	H235	0.08397
C248	H236	0.05336
C249	C250	0.07408
C249	H237	0.06733
C249	H238	0.05273
C250	H239	0.05293
C250	H240	0.08435
C250	H241	0.06401
C251	C252	0.07317
C251	H242	0.05311
C251	H243	0.06804
C252	H244	0.06471
C252	H245	0.08397
C252	H246	0.05336
C253	C254	0.07998
C253	H247	0.07728
C253	H248	0.05306
C254	H249	0.05199
C254	H250	0.07054
C254	H251	0.07685
C255	C256	0.07798
C255	H252	0.05129
C255	H253	0.08041
C256	H254	0.07995
C256	H255	0.06955
C256	H256	0.05029
