data_NiPyC2_NiPyC2_aligned_O-CH2-CH2-CH3_NiPyC2_aligned_O-CH2-CH2-CH3_NiPyC2_aligned_O-CH2-CH2-CH3_NiPyC2_aligned_O-CH2-CH2-CH3_NiPyC2_aligned_O-CH2-CH2-CH3_NiPyC2_aligned_O-CH2-CH2-CH3_NiPyC2_aligned_O-CH2-CH2-CH3_NiPyC2_aligned_O-CH2-CH2-CH3_NiPyC2_aligned_O-CH2-CH2-CH3_NiPyC2_aligned_O-CH2-CH2-CH3_NiPyC2_aligned_O-CH2-CH2-CH3_NiPyC2_aligned_O-CH2-CH2-CH3_NiPyC2_aligned_O-CH2-CH2-CH3_NiPyC2_aligned_O-CH2-CH2-CH3_NiPyC2_aligned_O-CH2-CH2-CH3_NiPyC2_aligned_O-CH2-CH2-CH3_NiPyC2_aligned_O-CH2-CH2-CH3_NiPyC2_aligned_O-CH2-CH2-CH3_NiPyC2_aligned_O-CH2-CH2-CH3_NiPyC2_aligned_O-CH2-CH2-CH3_NiPyC2_aligned_O-CH2-CH2-CH3_NiPyC2_aligned_O-CH2-CH2-CH3_NiPyC2_aligned_O-CH2-CH2-CH3_NiPyC2_aligned_O-CH2-CH2-CH3_NiPyC2_aligned_O-CH2-CH2-CH3_NiPyC2_aligned_O-CH2-CH2-CH3_NiPyC2_aligned_O-CH2-CH2-CH3_NiPyC2_aligned_O-CH2-CH2-CH3_NiPyC2_aligned_O-CH2-CH2-CH3_NiPyC2_aligned_O-CH2-CH2-CH3_NiPyC2_aligned_O-CH2-CH2-CH3_NiPyC2_aligned_O-CH2-CH2-CH3_PM
_symmetry_space_group_name_H-M	'P1'
_cell_length_a	12.505600
_cell_length_b	25.046800
_cell_length_c	20.553600
_cell_angle_alpha	90.000000
_cell_angle_beta	91.269000
_cell_angle_gamma	90.000000
_symmetry_Int_Tables_number 1

loop_
_symmetry_equiv_pos_as_xyz
'x,y,z'

loop_
_atom_site_label
_atom_site_type_symbol
_atom_site_fract_x
_atom_site_fract_y
_atom_site_fract_z
Ni1	Ni	0.247400	0.376980	0.419715
O1	O	0.120650	0.174810	0.196450
O2	O	0.377450	0.066540	0.185100
O3	O	0.468450	0.176115	0.248650
O4	O	0.033250	0.059900	0.237100
N1	N	0.313950	0.421450	0.348100
N2	N	0.180550	0.323050	0.357550
C1	C	0.293900	0.479650	0.256700
H1	H	0.250100	0.493100	0.222050
C2	C	0.396600	0.499000	0.266850
C3	C	0.458550	0.477300	0.317700
H2	H	0.030100	0.488900	0.325250
C4	C	0.203850	0.259550	0.272050
H3	H	0.247550	0.245500	0.238900
C5	C	0.240150	0.301600	0.310850
H4	H	0.309550	0.315650	0.303950
C6	C	0.255750	0.440450	0.297500
H5	H	0.186050	0.426500	0.289550
C7	C	0.414250	0.438850	0.356850
H6	H	0.456650	0.424150	0.391300
C8	C	0.082250	0.302250	0.367300
H7	H	0.039650	0.317300	0.400350
C9	C	0.041300	0.260150	0.331300
C10	C	0.103950	0.238500	0.282300
C11	C	0.439000	0.044650	0.227500
C12	C	0.061000	0.193100	0.240750
Ni2	Ni	0.497400	0.123020	0.169715
O5	O	0.370650	0.325190	0.446450
O6	O	0.127450	0.433460	0.435100
O7	O	0.218450	0.323885	0.498650
O8	O	0.283250	0.440100	0.487100
N3	N	0.063950	0.078550	0.098100
N4	N	0.430550	0.176950	0.107550
C13	C	0.043900	0.020350	0.006700
C14	C	0.146600	0.001000	0.016850
C15	C	0.208550	0.022700	0.067700
H8	H	0.280100	0.011100	0.075250
C16	C	0.453850	0.240450	0.022050
H9	H	0.497550	0.254500	0.488900
C17	C	0.490150	0.198400	0.060850
H10	H	0.059550	0.184350	0.053950
C18	C	0.005750	0.059550	0.047500
H11	H	0.436050	0.073500	0.039550
C19	C	0.164250	0.061150	0.106850
H12	H	0.206650	0.075850	0.141300
C20	C	0.332250	0.197750	0.117300
H13	H	0.289650	0.182700	0.150350
C21	C	0.291300	0.239850	0.081300
C22	C	0.353950	0.261500	0.032300
C23	C	0.189000	0.455350	0.477500
C24	C	0.311000	0.306900	0.490750
Ni3	Ni	0.247400	0.376980	0.919715
O9	O	0.120650	0.174810	0.696450
O10	O	0.377450	0.066540	0.685100
O11	O	0.468450	0.176115	0.748650
O12	O	0.033250	0.059900	0.737100
N5	N	0.313950	0.421450	0.848100
N6	N	0.180550	0.323050	0.857550
C25	C	0.293900	0.479650	0.756700
H14	H	0.250100	0.493100	0.722050
C26	C	0.396600	0.499000	0.766850
C27	C	0.458550	0.477300	0.817700
H15	H	0.030100	0.488900	0.825250
C28	C	0.203850	0.259550	0.772050
C29	C	0.240150	0.301600	0.810850
H16	H	0.309550	0.315650	0.803950
C30	C	0.255750	0.440450	0.797500
H17	H	0.186050	0.426500	0.789550
C31	C	0.414250	0.438850	0.856850
H18	H	0.456650	0.424150	0.891300
C32	C	0.082250	0.302250	0.867300
H19	H	0.039650	0.317300	0.900350
C33	C	0.041300	0.260150	0.831300
H20	H	0.472300	0.246250	0.839550
C34	C	0.103950	0.238500	0.782300
C35	C	0.439000	0.044650	0.727500
C36	C	0.061000	0.193100	0.740750
Ni4	Ni	0.497400	0.123020	0.669715
O13	O	0.370650	0.325190	0.946450
O14	O	0.127450	0.433460	0.935100
O15	O	0.218450	0.323885	0.998650
O16	O	0.283250	0.440100	0.987100
N7	N	0.063950	0.078550	0.598100
N8	N	0.430550	0.176950	0.607550
C37	C	0.043900	0.020350	0.506700
C38	C	0.146600	0.001000	0.516850
C39	C	0.208550	0.022700	0.567700
H21	H	0.280100	0.011100	0.575250
C40	C	0.453850	0.240450	0.522050
H22	H	0.497550	0.254500	0.988900
C41	C	0.490150	0.198400	0.560850
H23	H	0.059550	0.184350	0.553950
C42	C	0.005750	0.059550	0.547500
H24	H	0.436050	0.073500	0.539550
C43	C	0.164250	0.061150	0.606850
H25	H	0.206650	0.075850	0.641300
C44	C	0.332250	0.197750	0.617300
H26	H	0.289650	0.182700	0.650350
C45	C	0.291300	0.239850	0.581300
C46	C	0.353950	0.261500	0.532300
C47	C	0.189000	0.455350	0.977500
C48	C	0.311000	0.306900	0.990750
Ni5	Ni	0.247400	0.876980	0.419715
O17	O	0.120650	0.674810	0.196450
O18	O	0.377450	0.566540	0.185100
O19	O	0.468450	0.676115	0.248650
O20	O	0.033250	0.559900	0.237100
N9	N	0.313950	0.921450	0.348100
N10	N	0.180550	0.823050	0.357550
C49	C	0.293900	0.979650	0.256700
H27	H	0.250100	0.993100	0.222050
C50	C	0.396600	0.999000	0.266850
C51	C	0.458550	0.977300	0.317700
H28	H	0.030100	0.988900	0.325250
C52	C	0.203850	0.759550	0.272050
H29	H	0.247550	0.745500	0.238900
C53	C	0.240150	0.801600	0.310850
H30	H	0.309550	0.815650	0.303950
C54	C	0.255750	0.940450	0.297500
H31	H	0.186050	0.926500	0.289550
C55	C	0.414250	0.938850	0.356850
H32	H	0.456650	0.924150	0.391300
C56	C	0.082250	0.802250	0.367300
H33	H	0.039650	0.817300	0.400350
C57	C	0.041300	0.760150	0.331300
H34	H	0.472300	0.746250	0.339550
C58	C	0.103950	0.738500	0.282300
C59	C	0.439000	0.544650	0.227500
C60	C	0.061000	0.693100	0.240750
Ni6	Ni	0.497400	0.623020	0.169715
O21	O	0.370650	0.825190	0.446450
O22	O	0.127450	0.933460	0.435100
O23	O	0.218450	0.823885	0.498650
O24	O	0.283250	0.940100	0.487100
N11	N	0.063950	0.578550	0.098100
N12	N	0.430550	0.676950	0.107550
C61	C	0.043900	0.520350	0.006700
H35	H	0.000100	0.506900	0.472050
C62	C	0.146600	0.501000	0.016850
C63	C	0.208550	0.522700	0.067700
C64	C	0.453850	0.740450	0.022050
H36	H	0.497550	0.754500	0.488900
C65	C	0.490150	0.698400	0.060850
H37	H	0.059550	0.684350	0.053950
C66	C	0.005750	0.559550	0.047500
H38	H	0.436050	0.573500	0.039550
C67	C	0.164250	0.561150	0.106850
H39	H	0.206650	0.575850	0.141300
C68	C	0.332250	0.697750	0.117300
H40	H	0.289650	0.682700	0.150350
C69	C	0.291300	0.739850	0.081300
C70	C	0.353950	0.761500	0.032300
C71	C	0.189000	0.955350	0.477500
C72	C	0.311000	0.806900	0.490750
Ni7	Ni	0.247400	0.876980	0.919715
O25	O	0.120650	0.674810	0.696450
O26	O	0.377450	0.566540	0.685100
O27	O	0.468450	0.676115	0.748650
O28	O	0.033250	0.559900	0.737100
N13	N	0.313950	0.921450	0.848100
N14	N	0.180550	0.823050	0.857550
C73	C	0.293900	0.979650	0.756700
C74	C	0.396600	0.999000	0.766850
C75	C	0.458550	0.977300	0.817700
C76	C	0.203850	0.759550	0.772050
C77	C	0.240150	0.801600	0.810850
H41	H	0.309550	0.815650	0.803950
C78	C	0.255750	0.940450	0.797500
H42	H	0.186050	0.926500	0.789550
C79	C	0.414250	0.938850	0.856850
H43	H	0.456650	0.924150	0.891300
C80	C	0.082250	0.802250	0.867300
H44	H	0.039650	0.817300	0.900350
C81	C	0.041300	0.760150	0.831300
C82	C	0.103950	0.738500	0.782300
C83	C	0.439000	0.544650	0.727500
C84	C	0.061000	0.693100	0.740750
Ni8	Ni	0.497400	0.623020	0.669715
O29	O	0.370650	0.825190	0.946450
O30	O	0.127450	0.933460	0.935100
O31	O	0.218450	0.823885	0.998650
O32	O	0.283250	0.940100	0.987100
N15	N	0.063950	0.578550	0.598100
N16	N	0.430550	0.676950	0.607550
C85	C	0.043900	0.520350	0.506700
H45	H	0.000100	0.506900	0.972050
C86	C	0.146600	0.501000	0.516850
C87	C	0.208550	0.522700	0.567700
C88	C	0.453850	0.740450	0.522050
H46	H	0.497550	0.754500	0.988900
C89	C	0.490150	0.698400	0.560850
H47	H	0.059550	0.684350	0.553950
C90	C	0.005750	0.559550	0.547500
H48	H	0.436050	0.573500	0.539550
C91	C	0.164250	0.561150	0.606850
H49	H	0.206650	0.575850	0.641300
C92	C	0.332250	0.697750	0.617300
H50	H	0.289650	0.682700	0.650350
C93	C	0.291300	0.739850	0.581300
C94	C	0.353950	0.761500	0.532300
C95	C	0.189000	0.955350	0.977500
C96	C	0.311000	0.806900	0.990750
Ni9	Ni	0.747400	0.376980	0.419715
O33	O	0.620650	0.174810	0.196450
O34	O	0.877450	0.066540	0.185100
O35	O	0.968450	0.176115	0.248650
O36	O	0.533250	0.059900	0.237100
N17	N	0.813950	0.421450	0.348100
N18	N	0.680550	0.323050	0.357550
C97	C	0.793900	0.479650	0.256700
C98	C	0.896600	0.499000	0.266850
C99	C	0.958550	0.477300	0.317700
C100	C	0.703850	0.259550	0.272050
H51	H	0.747550	0.245500	0.238900
C101	C	0.740150	0.301600	0.310850
H52	H	0.809550	0.315650	0.303950
C102	C	0.755750	0.440450	0.297500
H53	H	0.686050	0.426500	0.289550
C103	C	0.914250	0.438850	0.356850
H54	H	0.956650	0.424150	0.391300
C104	C	0.582250	0.302250	0.367300
H55	H	0.539650	0.317300	0.400350
C105	C	0.541300	0.260150	0.331300
C106	C	0.603950	0.238500	0.282300
C107	C	0.939000	0.044650	0.227500
C108	C	0.561000	0.193100	0.240750
Ni10	Ni	0.997400	0.123020	0.169715
O37	O	0.870650	0.325190	0.446450
O38	O	0.627450	0.433460	0.435100
O39	O	0.718450	0.323885	0.498650
O40	O	0.783250	0.440100	0.487100
N19	N	0.563950	0.078550	0.098100
N20	N	0.930550	0.176950	0.107550
C109	C	0.543900	0.020350	0.006700
H56	H	0.500100	0.006900	0.472050
C110	C	0.646600	0.001000	0.016850
C111	C	0.708550	0.022700	0.067700
H57	H	0.780100	0.011100	0.075250
C112	C	0.953850	0.240450	0.022050
C113	C	0.990150	0.198400	0.060850
H58	H	0.559550	0.184350	0.053950
C114	C	0.505750	0.059550	0.047500
H59	H	0.936050	0.073500	0.039550
C115	C	0.664250	0.061150	0.106850
H60	H	0.706650	0.075850	0.141300
C116	C	0.832250	0.197750	0.117300
H61	H	0.789650	0.182700	0.150350
C117	C	0.791300	0.239850	0.081300
H62	H	0.722300	0.253750	0.089550
C118	C	0.853950	0.261500	0.032300
C119	C	0.689000	0.455350	0.477500
C120	C	0.811000	0.306900	0.490750
Ni11	Ni	0.747400	0.376980	0.919715
O41	O	0.620650	0.174810	0.696450
O42	O	0.877450	0.066540	0.685100
O43	O	0.968450	0.176115	0.748650
O44	O	0.533250	0.059900	0.737100
N21	N	0.813950	0.421450	0.848100
N22	N	0.680550	0.323050	0.857550
C121	C	0.793900	0.479650	0.756700
C122	C	0.896600	0.499000	0.766850
C123	C	0.958550	0.477300	0.817700
C124	C	0.703850	0.259550	0.772050
C125	C	0.740150	0.301600	0.810850
H63	H	0.809550	0.315650	0.803950
C126	C	0.755750	0.440450	0.797500
H64	H	0.686050	0.426500	0.789550
C127	C	0.914250	0.438850	0.856850
H65	H	0.956650	0.424150	0.891300
C128	C	0.582250	0.302250	0.867300
H66	H	0.539650	0.317300	0.900350
C129	C	0.541300	0.260150	0.831300
H67	H	0.972300	0.246250	0.839550
C130	C	0.603950	0.238500	0.782300
C131	C	0.939000	0.044650	0.727500
C132	C	0.561000	0.193100	0.740750
Ni12	Ni	0.997400	0.123020	0.669715
O45	O	0.870650	0.325190	0.946450
O46	O	0.627450	0.433460	0.935100
O47	O	0.718450	0.323885	0.998650
O48	O	0.783250	0.440100	0.987100
N23	N	0.563950	0.078550	0.598100
N24	N	0.930550	0.176950	0.607550
C133	C	0.543900	0.020350	0.506700
C134	C	0.646600	0.001000	0.516850
C135	C	0.708550	0.022700	0.567700
C136	C	0.953850	0.240450	0.522050
C137	C	0.990150	0.198400	0.560850
H68	H	0.559550	0.184350	0.553950
C138	C	0.505750	0.059550	0.547500
H69	H	0.936050	0.073500	0.539550
C139	C	0.664250	0.061150	0.606850
H70	H	0.706650	0.075850	0.641300
C140	C	0.832250	0.197750	0.617300
H71	H	0.789650	0.182700	0.650350
C141	C	0.791300	0.239850	0.581300
H72	H	0.722300	0.253750	0.589550
C142	C	0.853950	0.261500	0.532300
C143	C	0.689000	0.455350	0.977500
C144	C	0.811000	0.306900	0.990750
Ni13	Ni	0.747400	0.876980	0.419715
O49	O	0.620650	0.674810	0.196450
O50	O	0.877450	0.566540	0.185100
O51	O	0.968450	0.676115	0.248650
O52	O	0.533250	0.559900	0.237100
N25	N	0.813950	0.921450	0.348100
N26	N	0.680550	0.823050	0.357550
C145	C	0.793900	0.979650	0.256700
C146	C	0.896600	0.999000	0.266850
C147	C	0.958550	0.977300	0.317700
C148	C	0.703850	0.759550	0.272050
C149	C	0.740150	0.801600	0.310850
H73	H	0.809550	0.815650	0.303950
C150	C	0.755750	0.940450	0.297500
H74	H	0.686050	0.926500	0.289550
C151	C	0.914250	0.938850	0.356850
H75	H	0.956650	0.924150	0.391300
C152	C	0.582250	0.802250	0.367300
H76	H	0.539650	0.817300	0.400350
C153	C	0.541300	0.760150	0.331300
C154	C	0.603950	0.738500	0.282300
C155	C	0.939000	0.544650	0.227500
C156	C	0.561000	0.693100	0.240750
Ni14	Ni	0.997400	0.623020	0.169715
O53	O	0.870650	0.825190	0.446450
O54	O	0.627450	0.933460	0.435100
O55	O	0.718450	0.823885	0.498650
O56	O	0.783250	0.940100	0.487100
N27	N	0.563950	0.578550	0.098100
N28	N	0.930550	0.676950	0.107550
C157	C	0.543900	0.520350	0.006700
H77	H	0.500100	0.506900	0.472050
C158	C	0.646600	0.501000	0.016850
C159	C	0.708550	0.522700	0.067700
H78	H	0.780100	0.511100	0.075250
C160	C	0.953850	0.740450	0.022050
C161	C	0.990150	0.698400	0.060850
H79	H	0.559550	0.684350	0.053950
C162	C	0.505750	0.559550	0.047500
H80	H	0.936050	0.573500	0.039550
C163	C	0.664250	0.561150	0.106850
H81	H	0.706650	0.575850	0.141300
C164	C	0.832250	0.697750	0.117300
H82	H	0.789650	0.682700	0.150350
C165	C	0.791300	0.739850	0.081300
C166	C	0.853950	0.761500	0.032300
C167	C	0.689000	0.955350	0.477500
C168	C	0.811000	0.806900	0.490750
Ni15	Ni	0.747400	0.876980	0.919715
O57	O	0.620650	0.674810	0.696450
O58	O	0.877450	0.566540	0.685100
O59	O	0.968450	0.676115	0.748650
O60	O	0.533250	0.559900	0.737100
N29	N	0.813950	0.921450	0.848100
N30	N	0.680550	0.823050	0.857550
C169	C	0.793900	0.979650	0.756700
H83	H	0.750100	0.993100	0.722050
C170	C	0.896600	0.999000	0.766850
C171	C	0.958550	0.977300	0.817700
H84	H	0.530100	0.988900	0.825250
C172	C	0.703850	0.759550	0.772050
H85	H	0.747550	0.745500	0.738900
C173	C	0.740150	0.801600	0.810850
H86	H	0.809550	0.815650	0.803950
C174	C	0.755750	0.940450	0.797500
H87	H	0.686050	0.926500	0.789550
C175	C	0.914250	0.938850	0.856850
H88	H	0.956650	0.924150	0.891300
C176	C	0.582250	0.802250	0.867300
H89	H	0.539650	0.817300	0.900350
C177	C	0.541300	0.760150	0.831300
H90	H	0.972300	0.746250	0.839550
C178	C	0.603950	0.738500	0.782300
C179	C	0.939000	0.544650	0.727500
C180	C	0.561000	0.693100	0.740750
Ni16	Ni	0.997400	0.623020	0.669715
O61	O	0.870650	0.825190	0.946450
O62	O	0.627450	0.933460	0.935100
O63	O	0.718450	0.823885	0.998650
O64	O	0.783250	0.940100	0.987100
N31	N	0.563950	0.578550	0.598100
N32	N	0.930550	0.676950	0.607550
C181	C	0.543900	0.520350	0.506700
C182	C	0.646600	0.501000	0.516850
C183	C	0.708550	0.522700	0.567700
C184	C	0.953850	0.740450	0.522050
H91	H	0.997550	0.754500	0.988900
C185	C	0.990150	0.698400	0.560850
H92	H	0.559550	0.684350	0.553950
C186	C	0.505750	0.559550	0.547500
H93	H	0.936050	0.573500	0.539550
C187	C	0.664250	0.561150	0.606850
H94	H	0.706650	0.575850	0.641300
C188	C	0.832250	0.697750	0.617300
H95	H	0.789650	0.682700	0.650350
C189	C	0.791300	0.739850	0.581300
H96	H	0.722300	0.753750	0.589550
C190	C	0.853950	0.761500	0.532300
C191	C	0.689000	0.955350	0.977500
C192	C	0.811000	0.806900	0.990750
O65	O	0.561672	0.494736	0.327406
C193	C	0.631657	0.476854	0.375581
C194	C	0.738233	0.506097	0.369904
H97	H	0.644977	0.433204	0.369837
H98	H	0.597824	0.485030	0.424190
C195	C	0.818518	0.487701	0.422211
H99	H	0.724950	0.549762	0.375138
H100	H	0.771773	0.498299	0.321168
H101	H	0.787369	0.495843	0.471429
H102	H	0.894986	0.509623	0.416820
H103	H	0.834306	0.444254	0.417328
O66	O	-0.057735	0.239305	0.342160
C196	C	-0.127418	0.256872	0.388793
C197	C	-0.229309	0.223264	0.385254
H104	H	-0.148073	0.299469	0.379696
H105	H	-0.089387	0.252641	0.437972
C198	C	-0.309088	0.241153	0.435959
H106	H	-0.208720	0.180623	0.393842
H107	H	-0.266995	0.227123	0.335977
H108	H	-0.273700	0.236882	0.485740
H109	H	-0.382124	0.216035	0.432177
H110	H	-0.332117	0.283496	0.427736
O67	O	-0.018235	0.000311	-0.043640
C199	C	-0.121621	0.015856	-0.059325
C200	C	-0.162080	-0.015989	-0.118280
H111	H	-0.123011	0.059171	-0.071318
H112	H	-0.174264	0.008011	-0.017452
C201	C	-0.276301	-0.000237	-0.137585
H113	H	-0.159976	-0.059314	-0.106550
H114	H	-0.109085	-0.008512	-0.160038
H115	H	-0.331095	-0.008124	-0.096874
H116	H	-0.303381	-0.024010	-0.180469
H117	H	-0.280082	0.042802	-0.150491
O68	O	0.192265	0.260695	0.092160
C202	C	0.122582	0.243128	0.138793
C203	C	0.020691	0.276736	0.135254
H118	H	0.101927	0.200531	0.129696
H119	H	0.160613	0.247359	0.187972
C204	C	-0.059088	0.258847	0.185959
H120	H	0.041280	0.319377	0.143842
H121	H	-0.016995	0.272877	0.085977
H122	H	-0.023700	0.263118	0.235740
H123	H	-0.132124	0.283965	0.182177
H124	H	-0.082117	0.216504	0.177736
O69	O	0.561672	0.494736	0.827406
C205	C	0.631657	0.476854	0.875581
C206	C	0.738233	0.506097	0.869904
H125	H	0.644977	0.433204	0.869837
H126	H	0.597824	0.485030	0.924190
C207	C	0.818518	0.487701	0.922211
H127	H	0.724950	0.549762	0.875138
H128	H	0.771773	0.498299	0.821168
H129	H	0.787369	0.495843	0.971429
H130	H	0.894986	0.509623	0.916820
H131	H	0.834306	0.444254	0.917328
O70	O	0.266270	0.238934	0.723902
C208	C	0.367525	0.256169	0.708434
C209	C	0.408788	0.222734	0.652128
H132	H	0.422402	0.251438	0.751396
H133	H	0.364390	0.298874	0.693619
C210	C	0.520712	0.240271	0.633154
H134	H	0.353598	0.227091	0.609303
H135	H	0.411206	0.179990	0.666675
H136	H	0.519951	0.282717	0.617470
H137	H	0.548437	0.215287	0.592210
H138	H	0.577700	0.235502	0.674982
O71	O	-0.018235	0.000311	0.456360
C211	C	-0.121621	0.015856	0.440675
C212	C	-0.162080	-0.015989	0.381720
H139	H	-0.123011	0.059171	0.428682
H140	H	-0.174264	0.008011	0.482548
C213	C	-0.276301	-0.000237	0.362415
H141	H	-0.159976	-0.059314	0.393450
H142	H	-0.109085	-0.008512	0.339962
H143	H	-0.331095	-0.008124	0.403126
H144	H	-0.303381	-0.024010	0.319531
H145	H	-0.280082	0.042802	0.349509
O72	O	0.192265	0.260695	0.592160
C214	C	0.122582	0.243128	0.638793
C215	C	0.020691	0.276736	0.635254
H146	H	0.101927	0.200531	0.629696
H147	H	0.160613	0.247359	0.687972
C216	C	-0.059088	0.258847	0.685959
H148	H	0.041280	0.319377	0.643842
H149	H	-0.016995	0.272877	0.585977
H150	H	-0.023700	0.263118	0.735740
H151	H	-0.132124	0.283965	0.682177
H152	H	-0.082117	0.216504	0.677736
O73	O	0.561672	0.994735	0.327406
C217	C	0.631664	0.976846	0.375573
C218	C	0.738237	1.006092	0.369900
H153	H	0.597837	0.985012	0.424186
H154	H	0.644986	0.933198	0.369815
C219	C	0.818532	0.987685	0.422194
H155	H	0.771769	0.998307	0.321158
H156	H	0.724951	1.049757	0.375150
H157	H	0.834323	0.944239	0.417293
H158	H	0.894997	1.009610	0.416807
H159	H	0.787392	0.995814	0.471417
O74	O	-0.057735	0.739305	0.342160
C220	C	-0.127418	0.756872	0.388793
C221	C	-0.229309	0.723264	0.385254
H160	H	-0.148073	0.799469	0.379696
H161	H	-0.089387	0.752641	0.437972
C222	C	-0.309088	0.741153	0.435959
H162	H	-0.208720	0.680623	0.393842
H163	H	-0.266995	0.727123	0.335977
H164	H	-0.273700	0.736882	0.485740
H165	H	-0.382124	0.716035	0.432177
H166	H	-0.332117	0.783496	0.427736
O75	O	0.311672	0.505265	0.077406
C223	C	0.381664	0.523154	0.125573
C224	C	0.488237	0.493908	0.119900
H167	H	0.347837	0.514988	0.174186
H168	H	0.394986	0.566802	0.119815
C225	C	0.568532	0.512315	0.172194
H169	H	0.521769	0.501693	0.071158
H170	H	0.474951	0.450243	0.125150
H171	H	0.584323	0.555761	0.167293
H172	H	0.644997	0.490390	0.166807
H173	H	0.537392	0.504186	0.221417
O76	O	0.192265	0.760695	0.092160
C226	C	0.122582	0.743128	0.138793
C227	C	0.020691	0.776736	0.135254
H174	H	0.101927	0.700531	0.129696
H175	H	0.160613	0.747359	0.187972
C228	C	-0.059088	0.758847	0.185959
H176	H	0.041280	0.819377	0.143842
H177	H	-0.016995	0.772877	0.085977
H178	H	-0.023700	0.763118	0.235740
H179	H	-0.132124	0.783965	0.182177
H180	H	-0.082117	0.716504	0.177736
O77	O	0.231765	0.999689	0.706360
C229	C	0.128379	0.984144	0.690675
C230	C	0.087920	1.015989	0.631720
H181	H	0.126989	0.940829	0.678682
H182	H	0.075736	0.991989	0.732548
C231	C	-0.026301	1.000237	0.612415
H183	H	0.090024	1.059314	0.643450
H184	H	0.140915	1.008512	0.589962
H185	H	-0.081095	1.008124	0.653126
H186	H	-0.053381	1.024010	0.569531
H187	H	-0.030082	0.957198	0.599509
O78	O	0.266270	0.738934	0.723902
C232	C	0.367525	0.756169	0.708434
C233	C	0.408788	0.722734	0.652128
H188	H	0.422402	0.751438	0.751396
H189	H	0.364390	0.798874	0.693619
C234	C	0.520712	0.740271	0.633154
H190	H	0.353598	0.727091	0.609303
H191	H	0.411206	0.679990	0.666675
H192	H	0.519951	0.782717	0.617470
H193	H	0.548437	0.715287	0.592210
H194	H	0.577700	0.735502	0.674982
O79	O	0.311672	0.505265	0.577406
C235	C	0.381664	0.523154	0.625573
C236	C	0.488237	0.493908	0.619900
H195	H	0.347837	0.514988	0.674186
H196	H	0.394986	0.566802	0.619815
C237	C	0.568532	0.512315	0.672194
H197	H	0.521769	0.501693	0.571158
H198	H	0.474951	0.450243	0.625150
H199	H	0.584323	0.555761	0.667293
H200	H	0.644997	0.490390	0.666807
H201	H	0.537392	0.504186	0.721417
O80	O	0.192265	0.760695	0.592160
C238	C	0.122582	0.743128	0.638793
C239	C	0.020691	0.776736	0.635254
H202	H	0.101927	0.700531	0.629696
H203	H	0.160613	0.747359	0.687972
C240	C	-0.059088	0.758847	0.685959
H204	H	0.041280	0.819377	0.643842
H205	H	-0.016995	0.772877	0.585977
H206	H	-0.023700	0.763118	0.735740
H207	H	-0.132124	0.783965	0.682177
H208	H	-0.082117	0.716504	0.677736
O81	O	0.731765	0.499689	0.206360
C241	C	0.628379	0.484144	0.190675
C242	C	0.587920	0.515989	0.131720
H209	H	0.626989	0.440829	0.178682
H210	H	0.575736	0.491989	0.232548
C243	C	0.473699	0.500237	0.112415
H211	H	0.590024	0.559314	0.143450
H212	H	0.640915	0.508512	0.089962
H213	H	0.418905	0.508124	0.153126
H214	H	0.446619	0.524010	0.069531
H215	H	0.469918	0.457198	0.099509
O82	O	0.442265	0.239305	0.342160
C244	C	0.372582	0.256872	0.388793
C245	C	0.270691	0.223264	0.385254
H216	H	0.351927	0.299469	0.379696
H217	H	0.410613	0.252641	0.437972
C246	C	0.190912	0.241153	0.435959
H218	H	0.291280	0.180623	0.393842
H219	H	0.233005	0.227123	0.335977
H220	H	0.226300	0.236882	0.485740
H221	H	0.117876	0.216035	0.432177
H222	H	0.167883	0.283496	0.427736
O83	O	0.481765	0.000311	-0.043640
C247	C	0.378379	0.015856	-0.059325
C248	C	0.337920	-0.015989	-0.118280
H223	H	0.376989	0.059171	-0.071318
H224	H	0.325736	0.008011	-0.017452
C249	C	0.223699	-0.000237	-0.137585
H225	H	0.340024	-0.059314	-0.106550
H226	H	0.390915	-0.008512	-0.160038
H227	H	0.168905	-0.008124	-0.096874
H228	H	0.196619	-0.024010	-0.180469
H229	H	0.219918	0.042802	-0.150491
O84	O	1.016271	0.261066	-0.026097
C250	C	1.117534	0.243839	-0.041557
C251	C	1.158792	0.277270	-0.097867
H230	H	1.114417	0.201131	-0.056366
H231	H	1.172401	0.248579	0.001406
C252	C	1.270730	0.259744	-0.116828
H232	H	1.161188	0.320016	-0.083329
H233	H	1.103613	0.272901	-0.140695
H234	H	1.327707	0.264527	-0.074997
H235	H	1.298451	0.284724	-0.157776
H236	H	1.269994	0.217296	-0.132502
O85	O	0.731765	0.499689	0.706360
C253	C	0.628379	0.484144	0.690675
C254	C	0.587920	0.515989	0.631720
H237	H	0.626989	0.440829	0.678682
H238	H	0.575736	0.491989	0.732548
C255	C	0.473699	0.500237	0.612415
H239	H	0.590024	0.559314	0.643450
H240	H	0.640915	0.508512	0.589962
H241	H	0.418905	0.508124	0.653126
H242	H	0.446619	0.524010	0.569531
H243	H	0.469918	0.457198	0.599509
O86	O	0.766271	0.238934	0.723903
C256	C	0.867534	0.256161	0.708443
C257	C	0.908792	0.222730	0.652133
H244	H	0.864417	0.298869	0.693634
H245	H	0.922401	0.251421	0.751406
C258	C	1.020730	0.240256	0.633172
H246	H	0.911188	0.179984	0.666671
H247	H	0.853613	0.227099	0.609305
H248	H	1.077707	0.235473	0.675003
H249	H	1.048451	0.215276	0.592224
H250	H	1.019994	0.282704	0.617498
O87	O	0.811672	0.005265	0.577406
C259	C	0.881664	0.023154	0.625573
C260	C	0.988237	-0.006092	0.619900
H251	H	0.847837	0.014988	0.674186
H252	H	0.894986	0.066802	0.619815
C261	C	1.068532	0.012315	0.672194
H253	H	1.021769	0.001693	0.571158
H254	H	0.974951	-0.049757	0.625150
H255	H	1.084323	0.055761	0.667293
H256	H	1.144997	-0.009610	0.666807
H257	H	1.037392	0.004186	0.721417
O88	O	1.016271	0.261066	0.473903
C262	C	1.117534	0.243839	0.458443
C263	C	1.158792	0.277270	0.402133
H258	H	1.114417	0.201131	0.443634
H259	H	1.172401	0.248579	0.501406
C264	C	1.270730	0.259744	0.383172
H260	H	1.161188	0.320016	0.416671
H261	H	1.103613	0.272901	0.359305
H262	H	1.327707	0.264527	0.425003
H263	H	1.298451	0.284724	0.342224
H264	H	1.269994	0.217296	0.367498
O89	O	0.731765	0.999689	0.206360
C265	C	0.628379	0.984144	0.190675
C266	C	0.587920	1.015989	0.131720
H265	H	0.626989	0.940829	0.178682
H266	H	0.575736	0.991989	0.232548
C267	C	0.473699	1.000237	0.112415
H267	H	0.590024	1.059314	0.143450
H268	H	0.640915	1.008512	0.089962
H269	H	0.418905	1.008124	0.153126
H270	H	0.446619	1.024010	0.069531
H271	H	0.469918	0.957198	0.099509
O90	O	0.766271	0.738934	0.223903
C268	C	0.867534	0.756161	0.208443
C269	C	0.908792	0.722730	0.152133
H272	H	0.864417	0.798869	0.193634
H273	H	0.922401	0.751421	0.251406
C270	C	1.020730	0.740256	0.133172
H274	H	0.911188	0.679984	0.166671
H275	H	0.853613	0.727099	0.109305
H276	H	1.077707	0.735473	0.175003
H277	H	1.048451	0.715276	0.092224
H278	H	1.019994	0.782704	0.117498
O91	O	0.481765	0.500311	-0.043640
C271	C	0.378379	0.515856	-0.059325
C272	C	0.337920	0.484011	-0.118280
H279	H	0.376989	0.559171	-0.071318
H280	H	0.325736	0.508011	-0.017452
C273	C	0.223699	0.499763	-0.137585
H281	H	0.340024	0.440686	-0.106550
H282	H	0.390915	0.491488	-0.160038
H283	H	0.168905	0.491876	-0.096874
H284	H	0.196619	0.475990	-0.180469
H285	H	0.219918	0.542802	-0.150491
O92	O	0.692265	0.760695	0.092160
C274	C	0.622582	0.743128	0.138793
C275	C	0.520691	0.776736	0.135254
H286	H	0.601927	0.700531	0.129696
H287	H	0.660613	0.747359	0.187972
C276	C	0.440912	0.758847	0.185959
H288	H	0.541280	0.819377	0.143842
H289	H	0.483005	0.772877	0.085977
H290	H	0.476300	0.763118	0.235740
H291	H	0.367876	0.783965	0.182177
H292	H	0.417883	0.716504	0.177736
O93	O	1.061672	0.994736	0.827406
C277	C	1.131657	0.976854	0.875581
C278	C	1.238233	1.006097	0.869904
H293	H	1.144977	0.933204	0.869837
H294	H	1.097824	0.985030	0.924190
C279	C	1.318518	0.987701	0.922211
H295	H	1.224950	1.049762	0.875138
H296	H	1.271773	0.998299	0.821168
H297	H	1.287369	0.995843	0.971429
H298	H	1.394986	1.009623	0.916820
H299	H	1.334306	0.944254	0.917328
O94	O	0.442265	0.739305	0.842160
C280	C	0.372582	0.756872	0.888793
C281	C	0.270691	0.723264	0.885254
H300	H	0.351927	0.799469	0.879696
H301	H	0.410613	0.752641	0.937972
C282	C	0.190912	0.741153	0.935959
H302	H	0.291280	0.680623	0.893842
H303	H	0.233005	0.727123	0.835977
H304	H	0.226300	0.736882	0.985740
H305	H	0.117876	0.716035	0.932177
H306	H	0.167883	0.783496	0.927736
O95	O	0.811672	0.505265	0.577406
C283	C	0.881664	0.523154	0.625573
C284	C	0.988237	0.493908	0.619900
H307	H	0.847837	0.514988	0.674186
H308	H	0.894986	0.566802	0.619815
C285	C	1.068532	0.512315	0.672194
H309	H	1.021769	0.501693	0.571158
H310	H	0.974951	0.450243	0.625150
H311	H	1.084323	0.555761	0.667293
H312	H	1.144997	0.490390	0.666807
H313	H	1.037392	0.504186	0.721417
O96	O	1.016271	0.761066	0.473903
C286	C	1.117534	0.743839	0.458443
C287	C	1.158792	0.777270	0.402133
H314	H	1.114417	0.701131	0.443634
H315	H	1.172401	0.748579	0.501406
C288	C	1.270730	0.759744	0.383172
H316	H	1.161188	0.820016	0.416671
H317	H	1.103613	0.772901	0.359305
H318	H	1.327707	0.764527	0.425003
H319	H	1.298451	0.784724	0.342224
H320	H	1.269994	0.717296	0.367498

loop_
_geom_bond_atom_site_label_1
_geom_bond_atom_site_label_2
_geom_bond_distance
Ni1	N1	0.10740
Ni1	N2	0.10603
Ni1	O5	0.13634
Ni1	O6	0.13347
Ni1	O7	0.09944
Ni1	O8	0.09905
O1	C12	0.07652
O1	Ni10	0.13634
O2	C11	0.07788
O2	Ni2	0.13347
O3	Ni2	0.09944
O3	C108	0.09443
O4	C107	0.09596
O4	Ni10	0.09905
N1	C6	0.07943
N1	C7	0.10217
N2	C5	0.07870
N2	C8	0.10095
C1	H1	0.05745
C1	C2	0.10500
C1	C6	0.06824
C2	C3	0.08303
C2	C59	0.07369
C3	C7	0.07052
C3	O65	0.10503
H2	C99	0.07288
C4	H3	0.05662
C4	C5	0.06776
C4	C10	0.10261
C5	H4	0.07114
C6	H5	0.07153
C7	H6	0.05657
C8	H7	0.05598
C8	C9	0.06889
C9	C10	0.08243
C9	O66	0.10179
C10	C12	0.07505
C11	C50	0.07369
C11	O36	0.09596
C12	O35	0.09443
Ni2	N4	0.10603
Ni2	O33	0.13634
Ni2	O36	0.09905
Ni2	N19	0.10740
O5	C24	0.07652
O6	C23	0.07788
O7	C24	0.09443
O8	C23	0.09596
N3	C18	0.07943
N3	C19	0.10217
N3	Ni10	0.10740
N4	C17	0.07870
N4	C20	0.10095
C13	C14	0.10500
C13	C18	0.06824
C13	O67	0.08244
C14	C15	0.08303
C14	C95	0.07369
C15	H8	0.07288
C15	C19	0.07052
C16	C17	0.06776
C16	C22	0.10261
C16	H22	0.05662
H9	C40	0.05662
C17	H58	0.07114
H10	C113	0.07114
C18	H59	0.07153
H11	C114	0.07153
C19	H12	0.05657
C20	H13	0.05598
C20	C21	0.06889
C21	C22	0.08243
C21	O68	0.10179
C22	C48	0.07505
C23	C86	0.07369
C24	C46	0.07505
Ni3	N5	0.10740
Ni3	N6	0.10603
Ni3	O13	0.13634
Ni3	O14	0.13347
Ni3	O15	0.09944
Ni3	O16	0.09905
O9	C36	0.07652
O9	Ni12	0.13634
O10	C35	0.07788
O10	Ni4	0.13347
O11	Ni4	0.09944
O11	C132	0.09443
O12	C131	0.09596
O12	Ni12	0.09905
N5	C30	0.07943
N5	C31	0.10217
N6	C29	0.07870
N6	C32	0.10095
C25	H14	0.05745
C25	C26	0.10500
C25	C30	0.06824
C26	C27	0.08303
C26	C83	0.07369
C27	C31	0.07052
C27	O69	0.10503
H15	C123	0.07288
C28	C29	0.06776
C28	C34	0.10261
C28	O70	0.08148
C29	H16	0.07114
C30	H17	0.07153
C31	H18	0.05657
C32	H19	0.05598
C32	C33	0.06889
C33	C34	0.08243
C33	H67	0.07087
H20	C129	0.07087
C34	C36	0.07505
C35	C74	0.07369
C35	O44	0.09596
C36	O43	0.09443
Ni4	N8	0.10603
Ni4	O41	0.13634
Ni4	O44	0.09905
Ni4	N23	0.10740
O13	C48	0.07652
O14	C47	0.07788
O15	C48	0.09443
O16	C47	0.09596
N7	C42	0.07943
N7	C43	0.10217
N7	Ni12	0.10740
N8	C41	0.07870
N8	C44	0.10095
C37	C38	0.10500
C37	C42	0.06824
C37	O71	0.08244
C38	C39	0.08303
C38	C71	0.07369
C39	H21	0.07288
C39	C43	0.07052
C40	C41	0.06776
C40	C46	0.10261
C41	H68	0.07114
H23	C137	0.07114
C42	H69	0.07153
H24	C138	0.07153
C43	H25	0.05657
C44	H26	0.05598
C44	C45	0.06889
C45	C46	0.08243
C45	O72	0.10179
C47	C62	0.07369
Ni5	N9	0.10740
Ni5	N10	0.10603
Ni5	O21	0.13634
Ni5	O22	0.13347
Ni5	O23	0.09944
Ni5	O24	0.09905
O17	C60	0.07652
O17	Ni14	0.13634
O18	C59	0.07788
O18	Ni6	0.13347
O19	Ni6	0.09944
O19	C156	0.09443
O20	C155	0.09596
O20	Ni14	0.09905
N9	C54	0.07943
N9	C55	0.10217
N10	C53	0.07870
N10	C56	0.10095
C49	H27	0.05745
C49	C50	0.10500
C49	C54	0.06824
C50	C51	0.08303
C51	C55	0.07052
C51	O73	0.10503
H28	C147	0.07288
C52	H29	0.05662
C52	C53	0.06776
C52	C58	0.10261
C53	H30	0.07114
C54	H31	0.07153
C55	H32	0.05657
C56	H33	0.05598
C56	C57	0.06889
C57	C58	0.08243
C57	O74	0.10179
H34	C153	0.07087
C58	C60	0.07505
C59	O52	0.09596
C60	O51	0.09443
Ni6	N12	0.10603
Ni6	O49	0.13634
Ni6	O52	0.09905
Ni6	N27	0.10740
O21	C72	0.07652
O22	C71	0.07788
O23	C72	0.09443
O24	C71	0.09596
N11	C66	0.07943
N11	C67	0.10217
N11	Ni14	0.10740
N12	C65	0.07870
N12	C68	0.10095
C61	C62	0.10500
C61	C66	0.06824
C61	H45	0.05745
H35	C85	0.05745
C62	C63	0.08303
C63	C67	0.07052
C63	O75	0.10503
C64	C65	0.06776
C64	C70	0.10261
C64	H46	0.05662
H36	C88	0.05662
C65	H79	0.07114
H37	C161	0.07114
C66	H80	0.07153
H38	C162	0.07153
C67	H39	0.05657
C68	H40	0.05598
C68	C69	0.06889
C69	C70	0.08243
C69	O76	0.10179
C70	C96	0.07505
C72	C94	0.07505
Ni7	N13	0.10740
Ni7	N14	0.10603
Ni7	O29	0.13634
Ni7	O30	0.13347
Ni7	O31	0.09944
Ni7	O32	0.09905
O25	C84	0.07652
O25	Ni16	0.13634
O26	C83	0.07788
O26	Ni8	0.13347
O27	Ni8	0.09944
O27	C180	0.09443
O28	C179	0.09596
O28	Ni16	0.09905
N13	C78	0.07943
N13	C79	0.10217
N14	C77	0.07870
N14	C80	0.10095
C73	C74	0.10500
C73	C78	0.06824
C73	O77	0.08244
C74	C75	0.08303
C75	C79	0.07052
C75	H84	0.07288
C76	C77	0.06776
C76	C82	0.10261
C76	O78	0.08148
C77	H41	0.07114
C78	H42	0.07153
C79	H43	0.05657
C80	H44	0.05598
C80	C81	0.06889
C81	C82	0.08243
C81	H90	0.07087
C82	C84	0.07505
C83	O60	0.09596
C84	O59	0.09443
Ni8	N16	0.10603
Ni8	O57	0.13634
Ni8	O60	0.09905
Ni8	N31	0.10740
O29	C96	0.07652
O30	C95	0.07788
O31	C96	0.09443
O32	C95	0.09596
N15	C90	0.07943
N15	C91	0.10217
N15	Ni16	0.10740
N16	C89	0.07870
N16	C92	0.10095
C85	C86	0.10500
C85	C90	0.06824
C86	C87	0.08303
C87	C91	0.07052
C87	O79	0.10503
C88	C89	0.06776
C88	C94	0.10261
C89	H92	0.07114
H47	C185	0.07114
C90	H93	0.07153
H48	C186	0.07153
C91	H49	0.05657
C92	H50	0.05598
C92	C93	0.06889
C93	C94	0.08243
C93	O80	0.10179
Ni9	N17	0.10740
Ni9	N18	0.10603
Ni9	O37	0.13634
Ni9	O38	0.13347
Ni9	O39	0.09944
Ni9	O40	0.09905
O33	C108	0.07652
O34	C107	0.07788
O34	Ni10	0.13347
O35	Ni10	0.09944
N17	C102	0.07943
N17	C103	0.10217
N18	C101	0.07870
N18	C104	0.10095
C97	C98	0.10500
C97	C102	0.06824
C97	O81	0.08244
C98	C99	0.08303
C98	C155	0.07369
C99	C103	0.07052
C100	H51	0.05662
C100	C101	0.06776
C100	C106	0.10261
C101	H52	0.07114
C102	H53	0.07153
C103	H54	0.05657
C104	H55	0.05598
C104	C105	0.06889
C105	C106	0.08243
C105	O82	0.10179
C106	C108	0.07505
C107	C146	0.07369
Ni10	N20	0.10603
O37	C120	0.07652
O38	C119	0.07788
O39	C120	0.09443
O40	C119	0.09596
N19	C114	0.07943
N19	C115	0.10217
N20	C113	0.07870
N20	C116	0.10095
C109	C110	0.10500
C109	C114	0.06824
C109	O83	0.08244
H56	C133	0.05745
C110	C111	0.08303
C110	C191	0.07369
C111	H57	0.07288
C111	C115	0.07052
C112	C113	0.06776
C112	C118	0.10261
C112	O84	0.08148
C115	H60	0.05657
C116	H61	0.05598
C116	C117	0.06889
C117	H62	0.07087
C117	C118	0.08243
C118	C144	0.07505
C119	C182	0.07369
C120	C142	0.07505
Ni11	N21	0.10740
Ni11	N22	0.10603
Ni11	O45	0.13634
Ni11	O46	0.13347
Ni11	O47	0.09944
Ni11	O48	0.09905
O41	C132	0.07652
O42	C131	0.07788
O42	Ni12	0.13347
O43	Ni12	0.09944
N21	C126	0.07943
N21	C127	0.10217
N22	C125	0.07870
N22	C128	0.10095
C121	C122	0.10500
C121	C126	0.06824
C121	O85	0.08244
C122	C123	0.08303
C122	C179	0.07369
C123	C127	0.07052
C124	C125	0.06776
C124	C130	0.10261
C124	O86	0.08148
C125	H63	0.07114
C126	H64	0.07153
C127	H65	0.05657
C128	H66	0.05598
C128	C129	0.06889
C129	C130	0.08243
C130	C132	0.07505
C131	C170	0.07369
Ni12	N24	0.10603
O45	C144	0.07652
O46	C143	0.07788
O47	C144	0.09443
O48	C143	0.09596
N23	C138	0.07943
N23	C139	0.10217
N24	C137	0.07870
N24	C140	0.10095
C133	C134	0.10500
C133	C138	0.06824
C134	C135	0.08303
C134	C167	0.07369
C135	C139	0.07052
C135	O87	0.10503
C136	C137	0.06776
C136	C142	0.10261
C136	O88	0.08148
C139	H70	0.05657
C140	H71	0.05598
C140	C141	0.06889
C141	H72	0.07087
C141	C142	0.08243
C143	C158	0.07369
Ni13	N25	0.10740
Ni13	N26	0.10603
Ni13	O53	0.13634
Ni13	O54	0.13347
Ni13	O55	0.09944
Ni13	O56	0.09905
O49	C156	0.07652
O50	C155	0.07788
O50	Ni14	0.13347
O51	Ni14	0.09944
N25	C150	0.07943
N25	C151	0.10217
N26	C149	0.07870
N26	C152	0.10095
C145	C146	0.10500
C145	C150	0.06824
C145	O89	0.08244
C146	C147	0.08303
C147	C151	0.07052
C148	C149	0.06776
C148	C154	0.10261
C148	O90	0.08148
C149	H73	0.07114
C150	H74	0.07153
C151	H75	0.05657
C152	H76	0.05598
C152	C153	0.06889
C153	C154	0.08243
C154	C156	0.07505
Ni14	N28	0.10603
O53	C168	0.07652
O54	C167	0.07788
O55	C168	0.09443
O56	C167	0.09596
N27	C162	0.07943
N27	C163	0.10217
N28	C161	0.07870
N28	C164	0.10095
C157	C158	0.10500
C157	C162	0.06824
C157	O91	0.08244
H77	C181	0.05745
C158	C159	0.08303
C159	H78	0.07288
C159	C163	0.07052
C160	C161	0.06776
C160	C166	0.10261
C160	H91	0.05662
C163	H81	0.05657
C164	H82	0.05598
C164	C165	0.06889
C165	C166	0.08243
C165	O92	0.10179
C166	C192	0.07505
C168	C190	0.07505
Ni15	N29	0.10740
Ni15	N30	0.10603
Ni15	O61	0.13634
Ni15	O62	0.13347
Ni15	O63	0.09944
Ni15	O64	0.09905
O57	C180	0.07652
O58	C179	0.07788
O58	Ni16	0.13347
O59	Ni16	0.09944
N29	C174	0.07943
N29	C175	0.10217
N30	C173	0.07870
N30	C176	0.10095
C169	H83	0.05745
C169	C170	0.10500
C169	C174	0.06824
C170	C171	0.08303
C171	C175	0.07052
C171	O93	0.10503
C172	H85	0.05662
C172	C173	0.06776
C172	C178	0.10261
C173	H86	0.07114
C174	H87	0.07153
C175	H88	0.05657
C176	H89	0.05598
C176	C177	0.06889
C177	C178	0.08243
C177	O94	0.10179
C178	C180	0.07505
Ni16	N32	0.10603
O61	C192	0.07652
O62	C191	0.07788
O63	C192	0.09443
O64	C191	0.09596
N31	C186	0.07943
N31	C187	0.10217
N32	C185	0.07870
N32	C188	0.10095
C181	C182	0.10500
C181	C186	0.06824
C182	C183	0.08303
C183	C187	0.07052
C183	O95	0.10503
C184	C185	0.06776
C184	C190	0.10261
C187	H94	0.05657
C188	H95	0.05598
C188	C189	0.06889
C189	H96	0.07087
C189	C190	0.08243
O65	C193	0.08682
C193	C194	0.11066
C193	H97	0.04600
C193	H98	0.05979
C194	C195	0.09757
C194	H99	0.04594
C194	H100	0.05967
C195	H101	0.05881
C195	H102	0.07973
C195	H103	0.04648
O66	C196	0.08567
C196	C197	0.10735
C196	H104	0.04821
C196	H105	0.06231
C197	C198	0.09621
C197	H106	0.04812
C197	H107	0.06216
C198	H108	0.06123
C198	H109	0.07733
C198	H110	0.04890
O67	C199	0.10572
C199	C200	0.07827
C199	H111	0.04497
C199	H112	0.06772
C200	C201	0.11691
C200	H113	0.04493
C200	H114	0.06788
C201	H115	0.06872
C201	H116	0.05601
C201	H117	0.04509
O68	C202	0.08567
C202	C203	0.10735
C202	H118	0.04821
C202	H119	0.06231
C203	C204	0.09621
C203	H120	0.04812
C203	H121	0.06216
C204	H122	0.06123
C204	H123	0.07733
C204	H124	0.04890
O69	C205	0.08682
C205	C206	0.11066
C205	H125	0.04600
C205	H126	0.05979
C206	C207	0.09757
C206	H127	0.04594
C206	H128	0.05967
C207	H129	0.05881
C207	H130	0.07973
C207	H131	0.04648
O70	C208	0.10387
C208	C209	0.07740
C208	H132	0.06985
C208	H133	0.04531
C209	C210	0.11487
C209	H134	0.06999
C209	H135	0.04522
C210	H136	0.04526
C210	H137	0.05540
C210	H138	0.07085
O71	C211	0.10572
C211	C212	0.07827
C211	H139	0.04497
C211	H140	0.06772
C212	C213	0.11691
C212	H141	0.04493
C212	H142	0.06788
C213	H143	0.06872
C213	H144	0.05601
C213	H145	0.04509
O72	C214	0.08567
C214	C215	0.10735
C214	H146	0.04821
C214	H147	0.06231
C215	C216	0.09621
C215	H148	0.04812
C215	H149	0.06216
C216	H150	0.06123
C216	H151	0.07733
C216	H152	0.04890
O73	C217	0.08683
C217	C218	0.11066
C217	H153	0.05978
C217	H154	0.04600
C218	C219	0.09757
C218	H155	0.05967
C218	H156	0.04594
C219	H157	0.04649
C219	H158	0.07973
C219	H159	0.05881
O74	C220	0.08567
C220	C221	0.10735
C220	H160	0.04821
C220	H161	0.06231
C221	C222	0.09621
C221	H162	0.04812
C221	H163	0.06216
C222	H164	0.06123
C222	H165	0.07733
C222	H166	0.04890
O75	C223	0.08683
C223	C224	0.11066
C223	H167	0.05978
C223	H168	0.04600
C224	C225	0.09757
C224	H169	0.05967
C224	H170	0.04594
C225	H171	0.04649
C225	H172	0.07973
C225	H173	0.05881
O76	C226	0.08567
C226	C227	0.10735
C226	H174	0.04821
C226	H175	0.06231
C227	C228	0.09621
C227	H176	0.04812
C227	H177	0.06216
C228	H178	0.06123
C228	H179	0.07733
C228	H180	0.04890
O77	C229	0.10572
C229	C230	0.07827
C229	H181	0.04497
C229	H182	0.06772
C230	C231	0.11691
C230	H183	0.04493
C230	H184	0.06788
C231	H185	0.06872
C231	H186	0.05601
C231	H187	0.04509
O78	C232	0.10387
C232	C233	0.07740
C232	H188	0.06985
C232	H189	0.04531
C233	C234	0.11487
C233	H190	0.06999
C233	H191	0.04522
C234	H192	0.04526
C234	H193	0.05540
C234	H194	0.07085
O79	C235	0.08683
C235	C236	0.11066
C235	H195	0.05978
C235	H196	0.04600
C236	C237	0.09757
C236	H197	0.05967
C236	H198	0.04594
C237	H199	0.04649
C237	H200	0.07973
C237	H201	0.05881
O80	C238	0.08567
C238	C239	0.10735
C238	H202	0.04821
C238	H203	0.06231
C239	C240	0.09621
C239	H204	0.04812
C239	H205	0.06216
C240	H206	0.06123
C240	H207	0.07733
C240	H208	0.04890
O81	C241	0.10572
C241	C242	0.07827
C241	H209	0.04497
C241	H210	0.06772
C242	C243	0.11691
C242	H211	0.04493
C242	H212	0.06788
C243	H213	0.06872
C243	H214	0.05601
C243	H215	0.04509
O82	C244	0.08567
C244	C245	0.10735
C244	H216	0.04821
C244	H217	0.06231
C245	C246	0.09621
C245	H218	0.04812
C245	H219	0.06216
C246	H220	0.06123
C246	H221	0.07733
C246	H222	0.04890
O83	C247	0.10572
C247	C248	0.07827
C247	H223	0.04497
C247	H224	0.06772
C248	C249	0.11691
C248	H225	0.04493
C248	H226	0.06788
C249	H227	0.06872
C249	H228	0.05601
C249	H229	0.04509
O84	C250	0.10387
C250	C251	0.07740
C250	H230	0.04531
C250	H231	0.06985
C251	C252	0.11488
C251	H232	0.04521
C251	H233	0.06999
C252	H234	0.07085
C252	H235	0.05540
C252	H236	0.04526
O85	C253	0.10572
C253	C254	0.07827
C253	H237	0.04497
C253	H238	0.06772
C254	C255	0.11691
C254	H239	0.04493
C254	H240	0.06788
C255	H241	0.06872
C255	H242	0.05601
C255	H243	0.04509
O86	C256	0.10387
C256	C257	0.07740
C256	H244	0.04531
C256	H245	0.06985
C257	C258	0.11488
C257	H246	0.04521
C257	H247	0.06999
C258	H248	0.07085
C258	H249	0.05540
C258	H250	0.04526
O87	C259	0.08683
C259	C260	0.11066
C259	H251	0.05978
C259	H252	0.04600
C260	C261	0.09757
C260	H253	0.05967
C260	H254	0.04594
C261	H255	0.04649
C261	H256	0.07973
C261	H257	0.05881
O88	C262	0.10387
C262	C263	0.07740
C262	H258	0.04531
C262	H259	0.06985
C263	C264	0.11488
C263	H260	0.04521
C263	H261	0.06999
C264	H262	0.07085
C264	H263	0.05540
C264	H264	0.04526
O89	C265	0.10572
C265	C266	0.07827
C265	H265	0.04497
C265	H266	0.06772
C266	C267	0.11691
C266	H267	0.04493
C266	H268	0.06788
C267	H269	0.06872
C267	H270	0.05601
C267	H271	0.04509
O90	C268	0.10387
C268	C269	0.07740
C268	H272	0.04531
C268	H273	0.06985
C269	C270	0.11488
C269	H274	0.04521
C269	H275	0.06999
C270	H276	0.07085
C270	H277	0.05540
C270	H278	0.04526
O91	C271	0.10572
C271	C272	0.07827
C271	H279	0.04497
C271	H280	0.06772
C272	C273	0.11691
C272	H281	0.04493
C272	H282	0.06788
C273	H283	0.06872
C273	H284	0.05601
C273	H285	0.04509
O92	C274	0.08567
C274	C275	0.10735
C274	H286	0.04821
C274	H287	0.06231
C275	C276	0.09621
C275	H288	0.04812
C275	H289	0.06216
C276	H290	0.06123
C276	H291	0.07733
C276	H292	0.04890
O93	C277	0.08682
C277	C278	0.11066
C277	H293	0.04600
C277	H294	0.05979
C278	C279	0.09757
C278	H295	0.04594
C278	H296	0.05967
C279	H297	0.05881
C279	H298	0.07973
C279	H299	0.04648
O94	C280	0.08567
C280	C281	0.10735
C280	H300	0.04821
C280	H301	0.06231
C281	C282	0.09621
C281	H302	0.04812
C281	H303	0.06216
C282	H304	0.06123
C282	H305	0.07733
C282	H306	0.04890
O95	C283	0.08683
C283	C284	0.11066
C283	H307	0.05978
C283	H308	0.04600
C284	C285	0.09757
C284	H309	0.05967
C284	H310	0.04594
C285	H311	0.04649
