data_NiPyC2_NiPyC2_aligned_O-CH2-CH2-CH3_NiPyC2_aligned_O-CH2-CH2-CH3_NiPyC2_aligned_O-CH2-CH2-CH3_NiPyC2_aligned_O-CH2-CH2-CH3_NiPyC2_aligned_O-CH2-CH2-CH3_NiPyC2_aligned_O-CH2-CH2-CH3_NiPyC2_aligned_O-CH2-CH2-CH3_NiPyC2_aligned_O-CH2-CH2-CH3_NiPyC2_aligned_O-CH2-CH2-CH3_NiPyC2_aligned_O-CH2-CH2-CH3_NiPyC2_aligned_O-CH2-CH2-CH3_NiPyC2_aligned_O-CH2-CH2-CH3_NiPyC2_aligned_O-CH2-CH2-CH3_NiPyC2_aligned_O-CH2-CH2-CH3_NiPyC2_aligned_O-CH2-CH2-CH3_NiPyC2_aligned_O-CH2-CH2-CH3_NiPyC2_aligned_O-CH2-CH2-CH3_NiPyC2_aligned_O-CH2-CH2-CH3_NiPyC2_aligned_O-CH2-CH2-CH3_NiPyC2_aligned_O-CH2-CH2-CH3_NiPyC2_aligned_O-CH2-CH2-CH3_NiPyC2_aligned_O-CH2-CH2-CH3_NiPyC2_aligned_O-CH2-CH2-CH3_NiPyC2_aligned_O-CH2-CH2-CH3_NiPyC2_aligned_O-CH2-CH2-CH3_NiPyC2_aligned_O-CH2-CH2-CH3_NiPyC2_aligned_O-CH2-CH2-CH3_NiPyC2_aligned_O-CH2-CH2-CH3_NiPyC2_aligned_O-CH2-CH2-CH3_NiPyC2_aligned_O-CH2-CH2-CH3_NiPyC2_aligned_O-CH2-CH2-CH3_NiPyC2_aligned_O-CH2-CH2-CH3_PM
_symmetry_space_group_name_H-M	'P1'
_cell_length_a	12.505600
_cell_length_b	25.046800
_cell_length_c	20.553600
_cell_angle_alpha	90.000000
_cell_angle_beta	91.269000
_cell_angle_gamma	90.000000
_symmetry_Int_Tables_number 1

loop_
_symmetry_equiv_pos_as_xyz
'x,y,z'

loop_
_atom_site_label
_atom_site_type_symbol
_atom_site_fract_x
_atom_site_fract_y
_atom_site_fract_z
Ni1	Ni	0.247400	0.376980	0.419715
O1	O	0.120650	0.174810	0.196450
O2	O	0.377450	0.066540	0.185100
O3	O	0.468450	0.176115	0.248650
O4	O	0.033250	0.059900	0.237100
N1	N	0.313950	0.421450	0.348100
N2	N	0.180550	0.323050	0.357550
C1	C	0.293900	0.479650	0.256700
H1	H	0.250100	0.493100	0.222050
C2	C	0.396600	0.499000	0.266850
C3	C	0.458550	0.477300	0.317700
H2	H	0.030100	0.488900	0.325250
C4	C	0.203850	0.259550	0.272050
H3	H	0.247550	0.245500	0.238900
C5	C	0.240150	0.301600	0.310850
H4	H	0.309550	0.315650	0.303950
C6	C	0.255750	0.440450	0.297500
H5	H	0.186050	0.426500	0.289550
C7	C	0.414250	0.438850	0.356850
C8	C	0.082250	0.302250	0.367300
C9	C	0.041300	0.260150	0.331300
H6	H	0.472300	0.246250	0.339550
C10	C	0.103950	0.238500	0.282300
C11	C	0.439000	0.044650	0.227500
C12	C	0.061000	0.193100	0.240750
Ni2	Ni	0.497400	0.123020	0.169715
O5	O	0.370650	0.325190	0.446450
O6	O	0.127450	0.433460	0.435100
O7	O	0.218450	0.323885	0.498650
O8	O	0.283250	0.440100	0.487100
N3	N	0.063950	0.078550	0.098100
N4	N	0.430550	0.176950	0.107550
C13	C	0.043900	0.020350	0.006700
H7	H	0.000100	0.006900	0.472050
C14	C	0.146600	0.001000	0.016850
C15	C	0.208550	0.022700	0.067700
H8	H	0.280100	0.011100	0.075250
C16	C	0.453850	0.240450	0.022050
H9	H	0.497550	0.254500	0.488900
C17	C	0.490150	0.198400	0.060850
C18	C	0.005750	0.059550	0.047500
H10	H	0.436050	0.073500	0.039550
C19	C	0.164250	0.061150	0.106850
H11	H	0.206650	0.075850	0.141300
C20	C	0.332250	0.197750	0.117300
H12	H	0.289650	0.182700	0.150350
C21	C	0.291300	0.239850	0.081300
H13	H	0.222300	0.253750	0.089550
C22	C	0.353950	0.261500	0.032300
C23	C	0.189000	0.455350	0.477500
C24	C	0.311000	0.306900	0.490750
Ni3	Ni	0.247400	0.376980	0.919715
O9	O	0.120650	0.174810	0.696450
O10	O	0.377450	0.066540	0.685100
O11	O	0.468450	0.176115	0.748650
O12	O	0.033250	0.059900	0.737100
N5	N	0.313950	0.421450	0.848100
N6	N	0.180550	0.323050	0.857550
C25	C	0.293900	0.479650	0.756700
H14	H	0.250100	0.493100	0.722050
C26	C	0.396600	0.499000	0.766850
C27	C	0.458550	0.477300	0.817700
H15	H	0.030100	0.488900	0.825250
C28	C	0.203850	0.259550	0.772050
H16	H	0.247550	0.245500	0.738900
C29	C	0.240150	0.301600	0.810850
H17	H	0.309550	0.315650	0.803950
C30	C	0.255750	0.440450	0.797500
H18	H	0.186050	0.426500	0.789550
C31	C	0.414250	0.438850	0.856850
C32	C	0.082250	0.302250	0.867300
C33	C	0.041300	0.260150	0.831300
H19	H	0.472300	0.246250	0.839550
C34	C	0.103950	0.238500	0.782300
C35	C	0.439000	0.044650	0.727500
C36	C	0.061000	0.193100	0.740750
Ni4	Ni	0.497400	0.123020	0.669715
O13	O	0.370650	0.325190	0.946450
O14	O	0.127450	0.433460	0.935100
O15	O	0.218450	0.323885	0.998650
O16	O	0.283250	0.440100	0.987100
N7	N	0.063950	0.078550	0.598100
N8	N	0.430550	0.176950	0.607550
C37	C	0.043900	0.020350	0.506700
H20	H	0.000100	0.006900	0.972050
C38	C	0.146600	0.001000	0.516850
C39	C	0.208550	0.022700	0.567700
H21	H	0.280100	0.011100	0.575250
C40	C	0.453850	0.240450	0.522050
H22	H	0.497550	0.254500	0.988900
C41	C	0.490150	0.198400	0.560850
C42	C	0.005750	0.059550	0.547500
C43	C	0.164250	0.061150	0.606850
H23	H	0.206650	0.075850	0.641300
C44	C	0.332250	0.197750	0.617300
C45	C	0.291300	0.239850	0.581300
H24	H	0.222300	0.253750	0.589550
C46	C	0.353950	0.261500	0.532300
C47	C	0.189000	0.455350	0.977500
C48	C	0.311000	0.306900	0.990750
Ni5	Ni	0.247400	0.876980	0.419715
O17	O	0.120650	0.674810	0.196450
O18	O	0.377450	0.566540	0.185100
O19	O	0.468450	0.676115	0.248650
O20	O	0.033250	0.559900	0.237100
N9	N	0.313950	0.921450	0.348100
N10	N	0.180550	0.823050	0.357550
C49	C	0.293900	0.979650	0.256700
H25	H	0.250100	0.993100	0.222050
C50	C	0.396600	0.999000	0.266850
C51	C	0.458550	0.977300	0.317700
H26	H	0.030100	0.988900	0.325250
C52	C	0.203850	0.759550	0.272050
H27	H	0.247550	0.745500	0.238900
C53	C	0.240150	0.801600	0.310850
H28	H	0.309550	0.815650	0.303950
C54	C	0.255750	0.940450	0.297500
H29	H	0.186050	0.926500	0.289550
C55	C	0.414250	0.938850	0.356850
C56	C	0.082250	0.802250	0.367300
C57	C	0.041300	0.760150	0.331300
H30	H	0.472300	0.746250	0.339550
C58	C	0.103950	0.738500	0.282300
C59	C	0.439000	0.544650	0.227500
C60	C	0.061000	0.693100	0.240750
Ni6	Ni	0.497400	0.623020	0.169715
O21	O	0.370650	0.825190	0.446450
O22	O	0.127450	0.933460	0.435100
O23	O	0.218450	0.823885	0.498650
O24	O	0.283250	0.940100	0.487100
N11	N	0.063950	0.578550	0.098100
N12	N	0.430550	0.676950	0.107550
C61	C	0.043900	0.520350	0.006700
H31	H	0.000100	0.506900	0.472050
C62	C	0.146600	0.501000	0.016850
C63	C	0.208550	0.522700	0.067700
H32	H	0.280100	0.511100	0.075250
C64	C	0.453850	0.740450	0.022050
H33	H	0.497550	0.754500	0.488900
C65	C	0.490150	0.698400	0.060850
C66	C	0.005750	0.559550	0.047500
C67	C	0.164250	0.561150	0.106850
C68	C	0.332250	0.697750	0.117300
H34	H	0.289650	0.682700	0.150350
C69	C	0.291300	0.739850	0.081300
H35	H	0.222300	0.753750	0.089550
C70	C	0.353950	0.761500	0.032300
C71	C	0.189000	0.955350	0.477500
C72	C	0.311000	0.806900	0.490750
Ni7	Ni	0.247400	0.876980	0.919715
O25	O	0.120650	0.674810	0.696450
O26	O	0.377450	0.566540	0.685100
O27	O	0.468450	0.676115	0.748650
O28	O	0.033250	0.559900	0.737100
N13	N	0.313950	0.921450	0.848100
N14	N	0.180550	0.823050	0.857550
C73	C	0.293900	0.979650	0.756700
H36	H	0.250100	0.993100	0.722050
C74	C	0.396600	0.999000	0.766850
C75	C	0.458550	0.977300	0.817700
H37	H	0.030100	0.988900	0.825250
C76	C	0.203850	0.759550	0.772050
H38	H	0.247550	0.745500	0.738900
C77	C	0.240150	0.801600	0.810850
C78	C	0.255750	0.940450	0.797500
H39	H	0.186050	0.926500	0.789550
C79	C	0.414250	0.938850	0.856850
C80	C	0.082250	0.802250	0.867300
H40	H	0.039650	0.817300	0.900350
C81	C	0.041300	0.760150	0.831300
H41	H	0.472300	0.746250	0.839550
C82	C	0.103950	0.738500	0.782300
C83	C	0.439000	0.544650	0.727500
C84	C	0.061000	0.693100	0.740750
Ni8	Ni	0.497400	0.623020	0.669715
O29	O	0.370650	0.825190	0.946450
O30	O	0.127450	0.933460	0.935100
O31	O	0.218450	0.823885	0.998650
O32	O	0.283250	0.940100	0.987100
N15	N	0.063950	0.578550	0.598100
N16	N	0.430550	0.676950	0.607550
C85	C	0.043900	0.520350	0.506700
H42	H	0.000100	0.506900	0.972050
C86	C	0.146600	0.501000	0.516850
C87	C	0.208550	0.522700	0.567700
H43	H	0.280100	0.511100	0.575250
C88	C	0.453850	0.740450	0.522050
H44	H	0.497550	0.754500	0.988900
C89	C	0.490150	0.698400	0.560850
H45	H	0.059550	0.684350	0.553950
C90	C	0.005750	0.559550	0.547500
C91	C	0.164250	0.561150	0.606850
C92	C	0.332250	0.697750	0.617300
C93	C	0.291300	0.739850	0.581300
H46	H	0.222300	0.753750	0.589550
C94	C	0.353950	0.761500	0.532300
C95	C	0.189000	0.955350	0.977500
C96	C	0.311000	0.806900	0.990750
Ni9	Ni	0.747400	0.376980	0.419715
O33	O	0.620650	0.174810	0.196450
O34	O	0.877450	0.066540	0.185100
O35	O	0.968450	0.176115	0.248650
O36	O	0.533250	0.059900	0.237100
N17	N	0.813950	0.421450	0.348100
N18	N	0.680550	0.323050	0.357550
C97	C	0.793900	0.479650	0.256700
H47	H	0.750100	0.493100	0.222050
C98	C	0.896600	0.499000	0.266850
C99	C	0.958550	0.477300	0.317700
H48	H	0.530100	0.488900	0.325250
C100	C	0.703850	0.259550	0.272050
H49	H	0.747550	0.245500	0.238900
C101	C	0.740150	0.301600	0.310850
H50	H	0.809550	0.315650	0.303950
C102	C	0.755750	0.440450	0.297500
C103	C	0.914250	0.438850	0.356850
H51	H	0.956650	0.424150	0.391300
C104	C	0.582250	0.302250	0.367300
C105	C	0.541300	0.260150	0.331300
H52	H	0.972300	0.246250	0.339550
C106	C	0.603950	0.238500	0.282300
C107	C	0.939000	0.044650	0.227500
C108	C	0.561000	0.193100	0.240750
Ni10	Ni	0.997400	0.123020	0.169715
O37	O	0.870650	0.325190	0.446450
O38	O	0.627450	0.433460	0.435100
O39	O	0.718450	0.323885	0.498650
O40	O	0.783250	0.440100	0.487100
N19	N	0.563950	0.078550	0.098100
N20	N	0.930550	0.176950	0.107550
C109	C	0.543900	0.020350	0.006700
H53	H	0.500100	0.006900	0.472050
C110	C	0.646600	0.001000	0.016850
C111	C	0.708550	0.022700	0.067700
H54	H	0.780100	0.011100	0.075250
C112	C	0.953850	0.240450	0.022050
H55	H	0.997550	0.254500	0.488900
C113	C	0.990150	0.198400	0.060850
C114	C	0.505750	0.059550	0.047500
C115	C	0.664250	0.061150	0.106850
C116	C	0.832250	0.197750	0.117300
H56	H	0.789650	0.182700	0.150350
C117	C	0.791300	0.239850	0.081300
H57	H	0.722300	0.253750	0.089550
C118	C	0.853950	0.261500	0.032300
C119	C	0.689000	0.455350	0.477500
C120	C	0.811000	0.306900	0.490750
Ni11	Ni	0.747400	0.376980	0.919715
O41	O	0.620650	0.174810	0.696450
O42	O	0.877450	0.066540	0.685100
O43	O	0.968450	0.176115	0.748650
O44	O	0.533250	0.059900	0.737100
N21	N	0.813950	0.421450	0.848100
N22	N	0.680550	0.323050	0.857550
C121	C	0.793900	0.479650	0.756700
H58	H	0.750100	0.493100	0.722050
C122	C	0.896600	0.499000	0.766850
C123	C	0.958550	0.477300	0.817700
H59	H	0.530100	0.488900	0.825250
C124	C	0.703850	0.259550	0.772050
H60	H	0.747550	0.245500	0.738900
C125	C	0.740150	0.301600	0.810850
H61	H	0.809550	0.315650	0.803950
C126	C	0.755750	0.440450	0.797500
H62	H	0.686050	0.426500	0.789550
C127	C	0.914250	0.438850	0.856850
C128	C	0.582250	0.302250	0.867300
C129	C	0.541300	0.260150	0.831300
H63	H	0.972300	0.246250	0.839550
C130	C	0.603950	0.238500	0.782300
C131	C	0.939000	0.044650	0.727500
C132	C	0.561000	0.193100	0.740750
Ni12	Ni	0.997400	0.123020	0.669715
O45	O	0.870650	0.325190	0.946450
O46	O	0.627450	0.433460	0.935100
O47	O	0.718450	0.323885	0.998650
O48	O	0.783250	0.440100	0.987100
N23	N	0.563950	0.078550	0.598100
N24	N	0.930550	0.176950	0.607550
C133	C	0.543900	0.020350	0.506700
H64	H	0.500100	0.006900	0.972050
C134	C	0.646600	0.001000	0.516850
C135	C	0.708550	0.022700	0.567700
H65	H	0.780100	0.011100	0.575250
C136	C	0.953850	0.240450	0.522050
H66	H	0.997550	0.254500	0.988900
C137	C	0.990150	0.198400	0.560850
H67	H	0.559550	0.184350	0.553950
C138	C	0.505750	0.059550	0.547500
C139	C	0.664250	0.061150	0.606850
H68	H	0.706650	0.075850	0.641300
C140	C	0.832250	0.197750	0.617300
H69	H	0.789650	0.182700	0.650350
C141	C	0.791300	0.239850	0.581300
H70	H	0.722300	0.253750	0.589550
C142	C	0.853950	0.261500	0.532300
C143	C	0.689000	0.455350	0.977500
C144	C	0.811000	0.306900	0.990750
Ni13	Ni	0.747400	0.876980	0.419715
O49	O	0.620650	0.674810	0.196450
O50	O	0.877450	0.566540	0.185100
O51	O	0.968450	0.676115	0.248650
O52	O	0.533250	0.559900	0.237100
N25	N	0.813950	0.921450	0.348100
N26	N	0.680550	0.823050	0.357550
C145	C	0.793900	0.979650	0.256700
H71	H	0.750100	0.993100	0.222050
C146	C	0.896600	0.999000	0.266850
C147	C	0.958550	0.977300	0.317700
H72	H	0.530100	0.988900	0.325250
C148	C	0.703850	0.759550	0.272050
H73	H	0.747550	0.745500	0.238900
C149	C	0.740150	0.801600	0.310850
H74	H	0.809550	0.815650	0.303950
C150	C	0.755750	0.940450	0.297500
C151	C	0.914250	0.938850	0.356850
H75	H	0.956650	0.924150	0.391300
C152	C	0.582250	0.802250	0.367300
C153	C	0.541300	0.760150	0.331300
H76	H	0.972300	0.746250	0.339550
C154	C	0.603950	0.738500	0.282300
C155	C	0.939000	0.544650	0.227500
C156	C	0.561000	0.693100	0.240750
Ni14	Ni	0.997400	0.623020	0.169715
O53	O	0.870650	0.825190	0.446450
O54	O	0.627450	0.933460	0.435100
O55	O	0.718450	0.823885	0.498650
O56	O	0.783250	0.940100	0.487100
N27	N	0.563950	0.578550	0.098100
N28	N	0.930550	0.676950	0.107550
C157	C	0.543900	0.520350	0.006700
H77	H	0.500100	0.506900	0.472050
C158	C	0.646600	0.501000	0.016850
C159	C	0.708550	0.522700	0.067700
H78	H	0.780100	0.511100	0.075250
C160	C	0.953850	0.740450	0.022050
H79	H	0.997550	0.754500	0.488900
C161	C	0.990150	0.698400	0.060850
C162	C	0.505750	0.559550	0.047500
H80	H	0.936050	0.573500	0.039550
C163	C	0.664250	0.561150	0.106850
H81	H	0.706650	0.575850	0.141300
C164	C	0.832250	0.697750	0.117300
H82	H	0.789650	0.682700	0.150350
C165	C	0.791300	0.739850	0.081300
H83	H	0.722300	0.753750	0.089550
C166	C	0.853950	0.761500	0.032300
C167	C	0.689000	0.955350	0.477500
C168	C	0.811000	0.806900	0.490750
Ni15	Ni	0.747400	0.876980	0.919715
O57	O	0.620650	0.674810	0.696450
O58	O	0.877450	0.566540	0.685100
O59	O	0.968450	0.676115	0.748650
O60	O	0.533250	0.559900	0.737100
N29	N	0.813950	0.921450	0.848100
N30	N	0.680550	0.823050	0.857550
C169	C	0.793900	0.979650	0.756700
H84	H	0.750100	0.993100	0.722050
C170	C	0.896600	0.999000	0.766850
C171	C	0.958550	0.977300	0.817700
H85	H	0.530100	0.988900	0.825250
C172	C	0.703850	0.759550	0.772050
H86	H	0.747550	0.745500	0.738900
C173	C	0.740150	0.801600	0.810850
C174	C	0.755750	0.940450	0.797500
H87	H	0.686050	0.926500	0.789550
C175	C	0.914250	0.938850	0.856850
C176	C	0.582250	0.802250	0.867300
H88	H	0.539650	0.817300	0.900350
C177	C	0.541300	0.760150	0.831300
H89	H	0.972300	0.746250	0.839550
C178	C	0.603950	0.738500	0.782300
C179	C	0.939000	0.544650	0.727500
C180	C	0.561000	0.693100	0.740750
Ni16	Ni	0.997400	0.623020	0.669715
O61	O	0.870650	0.825190	0.946450
O62	O	0.627450	0.933460	0.935100
O63	O	0.718450	0.823885	0.998650
O64	O	0.783250	0.940100	0.987100
N31	N	0.563950	0.578550	0.598100
N32	N	0.930550	0.676950	0.607550
C181	C	0.543900	0.520350	0.506700
H90	H	0.500100	0.506900	0.972050
C182	C	0.646600	0.501000	0.516850
C183	C	0.708550	0.522700	0.567700
H91	H	0.780100	0.511100	0.575250
C184	C	0.953850	0.740450	0.522050
H92	H	0.997550	0.754500	0.988900
C185	C	0.990150	0.698400	0.560850
H93	H	0.559550	0.684350	0.553950
C186	C	0.505750	0.559550	0.547500
H94	H	0.936050	0.573500	0.539550
C187	C	0.664250	0.561150	0.606850
H95	H	0.706650	0.575850	0.641300
C188	C	0.832250	0.697750	0.617300
C189	C	0.791300	0.739850	0.581300
H96	H	0.722300	0.753750	0.589550
C190	C	0.853950	0.761500	0.532300
C191	C	0.689000	0.955350	0.977500
C192	C	0.811000	0.806900	0.990750
O65	O	0.479546	0.418107	0.407387
C193	C	0.448873	0.379512	0.451222
C194	C	0.542032	0.367761	0.498380
H97	H	0.379418	0.394124	0.479065
H98	H	0.426480	0.342313	0.424660
C195	C	0.512088	0.325246	0.547932
H99	H	0.611787	0.353541	0.470592
H100	H	0.565052	0.404988	0.524615
H101	H	0.490299	0.287363	0.522850
H102	H	0.581258	0.317599	0.581442
H103	H	0.443449	0.338934	0.577005
O66	O	0.017314	0.323610	0.415798
C196	C	0.044814	0.365598	0.456418
C197	C	-0.047193	0.376700	0.502168
H104	H	0.060353	0.401895	0.426887
H105	H	0.117739	0.355091	0.485657
C198	C	-0.020660	0.422888	0.548166
H106	H	-0.063375	0.340337	0.531370
H107	H	-0.120357	0.386813	0.473014
H108	H	0.051385	0.413338	0.578554
H109	H	-0.088905	0.429973	0.580723
H110	H	-0.005733	0.459927	0.520056
O67	O	-0.097451	0.079167	0.034110
C199	C	-0.148188	0.118174	0.069565
C200	C	-0.259174	0.128400	0.039605
H111	H	-0.156421	0.104630	0.120764
H112	H	-0.100775	0.155738	0.068498
C201	C	-0.318642	0.171308	0.077130
H113	H	-0.251143	0.141548	-0.011721
H114	H	-0.306399	0.090800	0.040179
H115	H	-0.273667	0.209544	0.076383
H116	H	-0.398836	0.177826	0.054236
H117	H	-0.329056	0.158674	0.128411
O68	O	0.593105	0.178943	0.049126
C202	C	0.642103	0.137559	0.082748
C203	C	0.753385	0.128286	0.055726
H118	H	0.593769	0.100520	0.076767
H119	H	0.649643	0.147980	0.135270
C204	C	0.810972	0.082827	0.091368
H120	H	0.801540	0.165392	0.061211
H121	H	0.746058	0.118264	0.003120
H122	H	0.820671	0.092323	0.143965
H123	H	0.891427	0.077068	0.070677
H124	H	0.765053	0.045079	0.085734
O69	O	0.479545	0.418107	0.907387
C205	C	0.448866	0.379520	0.951230
C206	C	0.542028	0.367766	0.998385
H125	H	0.426456	0.342319	0.924676
H126	H	0.379422	0.394141	0.979074
C207	C	0.512073	0.325262	1.047949
H127	H	0.565070	0.404993	1.024609
H128	H	0.611771	0.353533	0.970594
H129	H	0.443447	0.338963	1.077024
H130	H	0.581247	0.317611	1.081455
H131	H	0.490260	0.287378	1.022878
O70	O	0.017314	0.323610	0.915797
C208	C	0.044805	0.365606	0.956409
C209	C	-0.047197	0.376704	1.002163
H132	H	0.117740	0.355108	0.985646
H133	H	0.060326	0.401899	0.926871
C210	C	-0.020678	0.422902	1.048148
H134	H	-0.120371	0.386805	0.973012
H135	H	-0.063358	0.340343	1.031375
H136	H	-0.005776	0.459939	1.020027
H137	H	-0.088919	0.429984	1.080709
H138	H	0.051378	0.413366	1.078533
O71	O	-0.097451	0.079167	0.534110
C211	C	-0.148188	0.118174	0.569565
C212	C	-0.259174	0.128400	0.539605
H139	H	-0.156421	0.104630	0.620764
H140	H	-0.100775	0.155738	0.568498
C213	C	-0.318642	0.171308	0.577130
H141	H	-0.251143	0.141548	0.488279
H142	H	-0.306399	0.090800	0.540179
H143	H	-0.273667	0.209544	0.576383
H144	H	-0.398836	0.177826	0.554236
H145	H	-0.329056	0.158674	0.628411
O72	O	0.267314	0.176390	0.665797
C214	C	0.294805	0.134394	0.706409
C215	C	0.202803	0.123296	0.752163
H146	H	0.367740	0.144892	0.735646
H147	H	0.310326	0.098101	0.676871
C216	C	0.229322	0.077098	0.798148
H148	H	0.129629	0.113195	0.723012
H149	H	0.186642	0.159657	0.781375
H150	H	0.244224	0.040061	0.770027
H151	H	0.161081	0.070016	0.830709
H152	H	0.301378	0.086634	0.828533
O73	O	0.479546	0.918107	0.407387
C217	C	0.448873	0.879512	0.451222
C218	C	0.542032	0.867761	0.498380
H153	H	0.379418	0.894124	0.479065
H154	H	0.426480	0.842313	0.424660
C219	C	0.512088	0.825246	0.547932
H155	H	0.611787	0.853541	0.470592
H156	H	0.565052	0.904988	0.524615
H157	H	0.490299	0.787363	0.522850
H158	H	0.581258	0.817599	0.581442
H159	H	0.443449	0.838934	0.577005
O74	O	0.017314	0.823610	0.415798
C220	C	0.044814	0.865598	0.456418
C221	C	-0.047193	0.876700	0.502168
H160	H	0.060353	0.901895	0.426887
H161	H	0.117739	0.855091	0.485657
C222	C	-0.020660	0.922888	0.548166
H162	H	-0.063375	0.840337	0.531370
H163	H	-0.120357	0.886813	0.473014
H164	H	0.051385	0.913338	0.578554
H165	H	-0.088905	0.929973	0.580723
H166	H	-0.005733	0.959927	0.520056
O75	O	0.229545	0.581893	0.157387
C223	C	0.198866	0.620480	0.201230
C224	C	0.292028	0.632234	0.248385
H167	H	0.176456	0.657681	0.174676
H168	H	0.129422	0.605859	0.229074
C225	C	0.262073	0.674738	0.297949
H169	H	0.315070	0.595007	0.274609
H170	H	0.361771	0.646467	0.220594
H171	H	0.193447	0.661037	0.327024
H172	H	0.331247	0.682389	0.331455
H173	H	0.240260	0.712622	0.272878
O76	O	0.593105	0.678943	0.049126
C226	C	0.642103	0.637559	0.082748
C227	C	0.753385	0.628286	0.055726
H174	H	0.593769	0.600520	0.076767
H175	H	0.649643	0.647980	0.135270
C228	C	0.810972	0.582827	0.091368
H176	H	0.801540	0.665392	0.061211
H177	H	0.746058	0.618264	0.003120
H178	H	0.820671	0.592323	0.143965
H179	H	0.891427	0.577068	0.070677
H180	H	0.765053	0.545079	0.085734
O77	O	0.479546	0.918107	0.907387
C229	C	0.448873	0.879512	0.951222
C230	C	0.542032	0.867761	0.998380
H181	H	0.379418	0.894124	0.979065
H182	H	0.426480	0.842313	0.924660
C231	C	0.512088	0.825246	1.047932
H183	H	0.611787	0.853541	0.970592
H184	H	0.565052	0.904988	1.024615
H185	H	0.490299	0.787363	1.022850
H186	H	0.581258	0.817599	1.081442
H187	H	0.443449	0.838934	1.077005
O78	O	0.343105	0.821057	0.799126
C232	C	0.392103	0.862441	0.832748
C233	C	0.503385	0.871714	0.805726
H188	H	0.343769	0.899480	0.826767
H189	H	0.399643	0.852020	0.885270
C234	C	0.560972	0.917173	0.841368
H190	H	0.551540	0.834608	0.811211
H191	H	0.496058	0.881736	0.753120
H192	H	0.570671	0.907677	0.893965
H193	H	0.641427	0.922932	0.820677
H194	H	0.515053	0.954921	0.835734
O79	O	0.229545	0.581893	0.657387
C235	C	0.198866	0.620480	0.701230
C236	C	0.292028	0.632234	0.748385
H195	H	0.176456	0.657681	0.674676
H196	H	0.129422	0.605859	0.729074
C237	C	0.262073	0.674738	0.797949
H197	H	0.315070	0.595007	0.774609
H198	H	0.361771	0.646467	0.720594
H199	H	0.193447	0.661037	0.827024
H200	H	0.331247	0.682389	0.831455
H201	H	0.240260	0.712622	0.772878
O80	O	0.267314	0.676390	0.665797
C238	C	0.294805	0.634394	0.706409
C239	C	0.202803	0.623296	0.752163
H202	H	0.367740	0.644892	0.735646
H203	H	0.310326	0.598101	0.676871
C240	C	0.229322	0.577098	0.798148
H204	H	0.129629	0.613195	0.723012
H205	H	0.186642	0.659657	0.781375
H206	H	0.244224	0.540061	0.770027
H207	H	0.161081	0.570016	0.830709
H208	H	0.301378	0.586634	0.828533
O81	O	0.652549	0.420834	0.284111
C241	C	0.601803	0.381834	0.319572
C242	C	0.490821	0.371604	0.289609
H209	H	0.649214	0.344268	0.318519
H210	H	0.593565	0.395387	0.370767
C243	C	0.431341	0.328708	0.327146
H211	H	0.443601	0.409205	0.290167
H212	H	0.498860	0.358444	0.238288
H213	H	0.420918	0.341356	0.378421
H214	H	0.351151	0.322186	0.304248
H215	H	0.476312	0.290470	0.326417
O82	O	0.517314	0.323610	0.415797
C244	C	0.544805	0.365606	0.456409
C245	C	0.452803	0.376704	0.502163
H216	H	0.617740	0.355108	0.485646
H217	H	0.560326	0.401899	0.426871
C246	C	0.479322	0.422902	0.548148
H218	H	0.379629	0.386805	0.473012
H219	H	0.436642	0.340343	0.531375
H220	H	0.494224	0.459939	0.520027
H221	H	0.411081	0.429984	0.580709
H222	H	0.551378	0.413366	0.578533
O83	O	0.729545	0.081893	0.157387
C247	C	0.698866	0.120480	0.201230
C248	C	0.792028	0.132234	0.248385
H223	H	0.676456	0.157681	0.174676
H224	H	0.629422	0.105859	0.229074
C249	C	0.762073	0.174738	0.297949
H225	H	0.815070	0.095007	0.274609
H226	H	0.861771	0.146467	0.220594
H227	H	0.693447	0.161037	0.327024
H228	H	0.831247	0.182389	0.331455
H229	H	0.740260	0.212622	0.272878
O84	O	1.093105	0.178943	0.049126
C250	C	1.142103	0.137559	0.082748
C251	C	1.253385	0.128286	0.055726
H230	H	1.093769	0.100520	0.076767
H231	H	1.149643	0.147980	0.135270
C252	C	1.310972	0.082827	0.091368
H232	H	1.301540	0.165392	0.061211
H233	H	1.246058	0.118264	0.003120
H234	H	1.320671	0.092323	0.143965
H235	H	1.391427	0.077068	0.070677
H236	H	1.265053	0.045079	0.085734
O85	O	0.979545	0.418107	0.907387
C253	C	0.948866	0.379520	0.951230
C254	C	1.042028	0.367766	0.998385
H237	H	0.926456	0.342319	0.924676
H238	H	0.879422	0.394141	0.979074
C255	C	1.012073	0.325262	1.047949
H239	H	1.065070	0.404993	1.024609
H240	H	1.111771	0.353533	0.970594
H241	H	0.943447	0.338963	1.077024
H242	H	1.081247	0.317611	1.081455
H243	H	0.990260	0.287378	1.022878
O86	O	0.517314	0.323610	0.915797
C256	C	0.544805	0.365606	0.956409
C257	C	0.452803	0.376704	1.002163
H244	H	0.617740	0.355108	0.985646
H245	H	0.560326	0.401899	0.926871
C258	C	0.479322	0.422902	1.048148
H246	H	0.379629	0.386805	0.973012
H247	H	0.436642	0.340343	1.031375
H248	H	0.494224	0.459939	1.020027
H249	H	0.411081	0.429984	1.080709
H250	H	0.551378	0.413366	1.078533
O87	O	0.402549	0.079167	0.534110
C259	C	0.351812	0.118174	0.569565
C260	C	0.240826	0.128400	0.539605
H251	H	0.343579	0.104630	0.620764
H252	H	0.399225	0.155738	0.568498
C261	C	0.181358	0.171308	0.577130
H253	H	0.248857	0.141548	0.488279
H254	H	0.193601	0.090800	0.540179
H255	H	0.226333	0.209544	0.576383
H256	H	0.101164	0.177826	0.554236
H257	H	0.170944	0.158674	0.628411
O88	O	1.093105	0.178943	0.549126
C262	C	1.142103	0.137559	0.582748
C263	C	1.253385	0.128286	0.555726
H258	H	1.093769	0.100520	0.576767
H259	H	1.149643	0.147980	0.635270
C264	C	1.310972	0.082827	0.591368
H260	H	1.301540	0.165392	0.561211
H261	H	1.246058	0.118264	0.503120
H262	H	1.320671	0.092323	0.643965
H263	H	1.391427	0.077068	0.570677
H264	H	1.265053	0.045079	0.585734
O89	O	0.652549	0.920834	0.284111
C265	C	0.601803	0.881834	0.319572
C266	C	0.490821	0.871604	0.289609
H265	H	0.649214	0.844268	0.318519
H266	H	0.593565	0.895387	0.370767
C267	C	0.431341	0.828708	0.327146
H267	H	0.443601	0.909205	0.290167
H268	H	0.498860	0.858444	0.238288
H269	H	0.420918	0.841356	0.378421
H270	H	0.351151	0.822186	0.304248
H271	H	0.476312	0.790470	0.326417
O90	O	0.517314	0.823610	0.415797
C268	C	0.544805	0.865606	0.456409
C269	C	0.452803	0.876704	0.502163
H272	H	0.617740	0.855108	0.485646
H273	H	0.560326	0.901899	0.426871
C270	C	0.479322	0.922902	0.548148
H274	H	0.379629	0.886805	0.473012
H275	H	0.436642	0.840343	0.531375
H276	H	0.494224	0.959939	0.520027
H277	H	0.411081	0.929984	0.580709
H278	H	0.551378	0.913366	0.578533
O91	O	0.402549	0.579167	0.034110
C271	C	0.351812	0.618174	0.069565
C272	C	0.240826	0.628400	0.039605
H279	H	0.343579	0.604630	0.120764
H280	H	0.399225	0.655738	0.068498
C273	C	0.181358	0.671308	0.077130
H281	H	0.248857	0.641548	-0.011721
H282	H	0.193601	0.590800	0.040179
H283	H	0.226333	0.709544	0.076383
H284	H	0.101164	0.677826	0.054236
H285	H	0.170944	0.658674	0.128411
O92	O	1.093105	0.678943	0.049126
C274	C	1.142103	0.637559	0.082748
C275	C	1.253385	0.628286	0.055726
H286	H	1.093769	0.600520	0.076767
H287	H	1.149643	0.647980	0.135270
C276	C	1.310972	0.582827	0.091368
H288	H	1.301540	0.665392	0.061211
H289	H	1.246058	0.618264	0.003120
H290	H	1.320671	0.592323	0.143965
H291	H	1.391427	0.577068	0.070677
H292	H	1.265053	0.545079	0.085734
O93	O	0.979545	0.918107	0.907387
C277	C	0.948866	0.879520	0.951230
C278	C	1.042028	0.867766	0.998385
H293	H	0.926456	0.842319	0.924676
H294	H	0.879422	0.894141	0.979074
C279	C	1.012073	0.825262	1.047949
H295	H	1.065070	0.904993	1.024609
H296	H	1.111771	0.853533	0.970594
H297	H	0.943447	0.838963	1.077024
H298	H	1.081247	0.817611	1.081455
H299	H	0.990260	0.787378	1.022878
O94	O	0.843105	0.821057	0.799126
C280	C	0.892103	0.862441	0.832748
C281	C	1.003385	0.871714	0.805726
H300	H	0.843769	0.899480	0.826767
H301	H	0.899643	0.852020	0.885270
C282	C	1.060972	0.917173	0.841368
H302	H	1.051540	0.834608	0.811211
H303	H	0.996058	0.881736	0.753120
H304	H	1.070671	0.907677	0.893965
H305	H	1.141427	0.922932	0.820677
H306	H	1.015053	0.954921	0.835734
O95	O	0.402549	0.579167	0.534110
C283	C	0.351812	0.618174	0.569565
C284	C	0.240826	0.628400	0.539605
H307	H	0.343579	0.604630	0.620764
H308	H	0.399225	0.655738	0.568498
C285	C	0.181358	0.671308	0.577130
H309	H	0.248857	0.641548	0.488279
H310	H	0.193601	0.590800	0.540179
H311	H	0.226333	0.709544	0.576383
H312	H	0.101164	0.677826	0.554236
H313	H	0.170944	0.658674	0.628411
O96	O	0.767314	0.676390	0.665798
C286	C	0.794814	0.634402	0.706418
C287	C	0.702807	0.623300	0.752168
H314	H	0.810353	0.598105	0.676887
H315	H	0.867739	0.644909	0.735657
C288	C	0.729340	0.577112	0.798166
H316	H	0.686625	0.659663	0.781370
H317	H	0.629643	0.613187	0.723014
H318	H	0.801385	0.586662	0.828554
H319	H	0.661095	0.570027	0.830723
H320	H	0.744267	0.540073	0.770056

loop_
_geom_bond_atom_site_label_1
_geom_bond_atom_site_label_2
_geom_bond_distance
Ni1	N1	0.10740
Ni1	N2	0.10603
Ni1	O5	0.13634
Ni1	O6	0.13347
Ni1	O7	0.09944
Ni1	O8	0.09905
O1	C12	0.07652
O1	Ni10	0.13634
O2	C11	0.07788
O2	Ni2	0.13347
O3	Ni2	0.09944
O3	C108	0.09443
O4	C107	0.09596
O4	Ni10	0.09905
N1	C6	0.07943
N1	C7	0.10217
N2	C5	0.07870
N2	C8	0.10095
C1	H1	0.05745
C1	C2	0.10500
C1	C6	0.06824
C2	C3	0.08303
C2	C59	0.07369
C3	C7	0.07052
C3	H48	0.07288
H2	C99	0.07288
C4	H3	0.05662
C4	C5	0.06776
C4	C10	0.10261
C5	H4	0.07114
C6	H5	0.07153
C7	O65	0.08513
C8	C9	0.06889
C8	O66	0.08381
C9	C10	0.08243
C9	H52	0.07087
H6	C105	0.07087
C10	C12	0.07505
C11	C50	0.07369
C11	O36	0.09596
C12	O35	0.09443
Ni2	N4	0.10603
Ni2	O33	0.13634
Ni2	O36	0.09905
Ni2	N19	0.10740
O5	C24	0.07652
O6	C23	0.07788
O7	C24	0.09443
O8	C23	0.09596
N3	C18	0.07943
N3	C19	0.10217
N3	Ni10	0.10740
N4	C17	0.07870
N4	C20	0.10095
C13	C14	0.10500
C13	C18	0.06824
C13	H20	0.05745
H7	C37	0.05745
C14	C15	0.08303
C14	C95	0.07369
C15	H8	0.07288
C15	C19	0.07052
C16	C17	0.06776
C16	C22	0.10261
C16	H22	0.05662
H9	C40	0.05662
C17	O68	0.10543
C18	O67	0.10590
H10	C114	0.07153
C19	H11	0.05657
C20	H12	0.05598
C20	C21	0.06889
C21	H13	0.07087
C21	C22	0.08243
C22	C48	0.07505
C23	C86	0.07369
C24	C46	0.07505
Ni3	N5	0.10740
Ni3	N6	0.10603
Ni3	O13	0.13634
Ni3	O14	0.13347
Ni3	O15	0.09944
Ni3	O16	0.09905
O9	C36	0.07652
O9	Ni12	0.13634
O10	C35	0.07788
O10	Ni4	0.13347
O11	Ni4	0.09944
O11	C132	0.09443
O12	C131	0.09596
O12	Ni12	0.09905
N5	C30	0.07943
N5	C31	0.10217
N6	C29	0.07870
N6	C32	0.10095
C25	H14	0.05745
C25	C26	0.10500
C25	C30	0.06824
C26	C27	0.08303
C26	C83	0.07369
C27	C31	0.07052
C27	H59	0.07288
H15	C123	0.07288
C28	H16	0.05662
C28	C29	0.06776
C28	C34	0.10261
C29	H17	0.07114
C30	H18	0.07153
C31	O69	0.08513
C32	C33	0.06889
C32	O70	0.08382
C33	C34	0.08243
C33	H63	0.07087
H19	C129	0.07087
C34	C36	0.07505
C35	C74	0.07369
C35	O44	0.09596
C36	O43	0.09443
Ni4	N8	0.10603
Ni4	O41	0.13634
Ni4	O44	0.09905
Ni4	N23	0.10740
O13	C48	0.07652
O14	C47	0.07788
O15	C48	0.09443
O16	C47	0.09596
N7	C42	0.07943
N7	C43	0.10217
N7	Ni12	0.10740
N8	C41	0.07870
N8	C44	0.10095
C37	C38	0.10500
C37	C42	0.06824
C38	C39	0.08303
C38	C71	0.07369
C39	H21	0.07288
C39	C43	0.07052
C40	C41	0.06776
C40	C46	0.10261
C41	H67	0.07114
C42	O71	0.10590
C43	H23	0.05657
C44	C45	0.06889
C44	O72	0.08382
C45	H24	0.07087
C45	C46	0.08243
C47	C62	0.07369
Ni5	N9	0.10740
Ni5	N10	0.10603
Ni5	O21	0.13634
Ni5	O22	0.13347
Ni5	O23	0.09944
Ni5	O24	0.09905
O17	C60	0.07652
O17	Ni14	0.13634
O18	C59	0.07788
O18	Ni6	0.13347
O19	Ni6	0.09944
O19	C156	0.09443
O20	C155	0.09596
O20	Ni14	0.09905
N9	C54	0.07943
N9	C55	0.10217
N10	C53	0.07870
N10	C56	0.10095
C49	H25	0.05745
C49	C50	0.10500
C49	C54	0.06824
C50	C51	0.08303
C51	C55	0.07052
C51	H72	0.07288
H26	C147	0.07288
C52	H27	0.05662
C52	C53	0.06776
C52	C58	0.10261
C53	H28	0.07114
C54	H29	0.07153
C55	O73	0.08513
C56	C57	0.06889
C56	O74	0.08381
C57	C58	0.08243
C57	H76	0.07087
H30	C153	0.07087
C58	C60	0.07505
C59	O52	0.09596
C60	O51	0.09443
Ni6	N12	0.10603
Ni6	O49	0.13634
Ni6	O52	0.09905
Ni6	N27	0.10740
O21	C72	0.07652
O22	C71	0.07788
O23	C72	0.09443
O24	C71	0.09596
N11	C66	0.07943
N11	C67	0.10217
N11	Ni14	0.10740
N12	C65	0.07870
N12	C68	0.10095
C61	C62	0.10500
C61	C66	0.06824
C61	H42	0.05745
H31	C85	0.05745
C62	C63	0.08303
C63	H32	0.07288
C63	C67	0.07052
C64	C65	0.06776
C64	C70	0.10261
C64	H44	0.05662
H33	C88	0.05662
C65	O76	0.10543
C66	H80	0.07153
C67	O75	0.08513
C68	H34	0.05598
C68	C69	0.06889
C69	H35	0.07087
C69	C70	0.08243
C70	C96	0.07505
C72	C94	0.07505
Ni7	N13	0.10740
Ni7	N14	0.10603
Ni7	O29	0.13634
Ni7	O30	0.13347
Ni7	O31	0.09944
Ni7	O32	0.09905
O25	C84	0.07652
O25	Ni16	0.13634
O26	C83	0.07788
O26	Ni8	0.13347
O27	Ni8	0.09944
O27	C180	0.09443
O28	C179	0.09596
O28	Ni16	0.09905
N13	C78	0.07943
N13	C79	0.10217
N14	C77	0.07870
N14	C80	0.10095
C73	H36	0.05745
C73	C74	0.10500
C73	C78	0.06824
C74	C75	0.08303
C75	C79	0.07052
C75	H85	0.07288
H37	C171	0.07288
C76	H38	0.05662
C76	C77	0.06776
C76	C82	0.10261
C77	O78	0.10543
C78	H39	0.07153
C79	O77	0.08513
C80	H40	0.05598
C80	C81	0.06889
C81	C82	0.08243
C81	H89	0.07087
H41	C177	0.07087
C82	C84	0.07505
C83	O60	0.09596
C84	O59	0.09443
Ni8	N16	0.10603
Ni8	O57	0.13634
Ni8	O60	0.09905
Ni8	N31	0.10740
O29	C96	0.07652
O30	C95	0.07788
O31	C96	0.09443
O32	C95	0.09596
N15	C90	0.07943
N15	C91	0.10217
N15	Ni16	0.10740
N16	C89	0.07870
N16	C92	0.10095
C85	C86	0.10500
C85	C90	0.06824
C86	C87	0.08303
C87	H43	0.07288
C87	C91	0.07052
C88	C89	0.06776
C88	C94	0.10261
C89	H93	0.07114
H45	C185	0.07114
C90	H94	0.07153
C91	O79	0.08513
C92	C93	0.06889
C92	O80	0.08382
C93	H46	0.07087
C93	C94	0.08243
Ni9	N17	0.10740
Ni9	N18	0.10603
Ni9	O37	0.13634
Ni9	O38	0.13347
Ni9	O39	0.09944
Ni9	O40	0.09905
O33	C108	0.07652
O34	C107	0.07788
O34	Ni10	0.13347
O35	Ni10	0.09944
N17	C102	0.07943
N17	C103	0.10217
N18	C101	0.07870
N18	C104	0.10095
C97	H47	0.05745
C97	C98	0.10500
C97	C102	0.06824
C98	C99	0.08303
C98	C155	0.07369
C99	C103	0.07052
C100	H49	0.05662
C100	C101	0.06776
C100	C106	0.10261
C101	H50	0.07114
C102	O81	0.10590
C103	H51	0.05657
C104	C105	0.06889
C104	O82	0.08382
C105	C106	0.08243
C106	C108	0.07505
C107	C146	0.07369
Ni10	N20	0.10603
O37	C120	0.07652
O38	C119	0.07788
O39	C120	0.09443
O40	C119	0.09596
N19	C114	0.07943
N19	C115	0.10217
N20	C113	0.07870
N20	C116	0.10095
C109	C110	0.10500
C109	C114	0.06824
C109	H64	0.05745
H53	C133	0.05745
C110	C111	0.08303
C110	C191	0.07369
C111	H54	0.07288
C111	C115	0.07052
C112	C113	0.06776
C112	C118	0.10261
C112	H66	0.05662
H55	C136	0.05662
C113	O84	0.10543
C115	O83	0.08513
C116	H56	0.05598
C116	C117	0.06889
C117	H57	0.07087
C117	C118	0.08243
C118	C144	0.07505
C119	C182	0.07369
C120	C142	0.07505
Ni11	N21	0.10740
Ni11	N22	0.10603
Ni11	O45	0.13634
Ni11	O46	0.13347
Ni11	O47	0.09944
Ni11	O48	0.09905
O41	C132	0.07652
O42	C131	0.07788
O42	Ni12	0.13347
O43	Ni12	0.09944
N21	C126	0.07943
N21	C127	0.10217
N22	C125	0.07870
N22	C128	0.10095
C121	H58	0.05745
C121	C122	0.10500
C121	C126	0.06824
C122	C123	0.08303
C122	C179	0.07369
C123	C127	0.07052
C124	H60	0.05662
C124	C125	0.06776
C124	C130	0.10261
C125	H61	0.07114
C126	H62	0.07153
C127	O85	0.08513
C128	C129	0.06889
C128	O86	0.08382
C129	C130	0.08243
C130	C132	0.07505
C131	C170	0.07369
Ni12	N24	0.10603
O45	C144	0.07652
O46	C143	0.07788
O47	C144	0.09443
O48	C143	0.09596
N23	C138	0.07943
N23	C139	0.10217
N24	C137	0.07870
N24	C140	0.10095
C133	C134	0.10500
C133	C138	0.06824
C134	C135	0.08303
C134	C167	0.07369
C135	H65	0.07288
C135	C139	0.07052
C136	C137	0.06776
C136	C142	0.10261
C137	O88	0.10543
C138	O87	0.10590
C139	H68	0.05657
C140	H69	0.05598
C140	C141	0.06889
C141	H70	0.07087
C141	C142	0.08243
C143	C158	0.07369
Ni13	N25	0.10740
Ni13	N26	0.10603
Ni13	O53	0.13634
Ni13	O54	0.13347
Ni13	O55	0.09944
Ni13	O56	0.09905
O49	C156	0.07652
O50	C155	0.07788
O50	Ni14	0.13347
O51	Ni14	0.09944
N25	C150	0.07943
N25	C151	0.10217
N26	C149	0.07870
N26	C152	0.10095
C145	H71	0.05745
C145	C146	0.10500
C145	C150	0.06824
C146	C147	0.08303
C147	C151	0.07052
C148	H73	0.05662
C148	C149	0.06776
C148	C154	0.10261
C149	H74	0.07114
C150	O89	0.10590
C151	H75	0.05657
C152	C153	0.06889
C152	O90	0.08382
C153	C154	0.08243
C154	C156	0.07505
Ni14	N28	0.10603
O53	C168	0.07652
O54	C167	0.07788
O55	C168	0.09443
O56	C167	0.09596
N27	C162	0.07943
N27	C163	0.10217
N28	C161	0.07870
N28	C164	0.10095
C157	C158	0.10500
C157	C162	0.06824
C157	H90	0.05745
H77	C181	0.05745
C158	C159	0.08303
C159	H78	0.07288
C159	C163	0.07052
C160	C161	0.06776
C160	C166	0.10261
C160	H92	0.05662
H79	C184	0.05662
C161	O92	0.10543
C162	O91	0.10590
C163	H81	0.05657
C164	H82	0.05598
C164	C165	0.06889
C165	H83	0.07087
C165	C166	0.08243
C166	C192	0.07505
C168	C190	0.07505
Ni15	N29	0.10740
Ni15	N30	0.10603
Ni15	O61	0.13634
Ni15	O62	0.13347
Ni15	O63	0.09944
Ni15	O64	0.09905
O57	C180	0.07652
O58	C179	0.07788
O58	Ni16	0.13347
O59	Ni16	0.09944
N29	C174	0.07943
N29	C175	0.10217
N30	C173	0.07870
N30	C176	0.10095
C169	H84	0.05745
C169	C170	0.10500
C169	C174	0.06824
C170	C171	0.08303
C171	C175	0.07052
C172	H86	0.05662
C172	C173	0.06776
C172	C178	0.10261
C173	O94	0.10543
C174	H87	0.07153
C175	O93	0.08513
C176	H88	0.05598
C176	C177	0.06889
C177	C178	0.08243
C178	C180	0.07505
Ni16	N32	0.10603
O61	C192	0.07652
O62	C191	0.07788
O63	C192	0.09443
O64	C191	0.09596
N31	C186	0.07943
N31	C187	0.10217
N32	C185	0.07870
N32	C188	0.10095
C181	C182	0.10500
C181	C186	0.06824
C182	C183	0.08303
C183	H91	0.07288
C183	C187	0.07052
C184	C185	0.06776
C184	C190	0.10261
C186	O95	0.10590
C187	H95	0.05657
C188	C189	0.06889
C189	H96	0.07087
C189	C190	0.08243
O65	C193	0.06597
C193	C194	0.10507
C193	H97	0.07624
C193	H98	0.05090
C194	C195	0.07183
C194	H99	0.07642
C194	H100	0.05103
C195	H101	0.05039
C195	H102	0.07724
C195	H103	0.07579
O66	C196	0.06457
C196	C197	0.10335
C196	H104	0.04930
C196	H105	0.07927
C197	C198	0.07038
C197	H106	0.04937
C197	H107	0.07941
C198	H108	0.07877
C198	H109	0.07594
C198	H110	0.04884
O67	C199	0.07316
C199	C200	0.11541
C199	H111	0.05360
C199	H112	0.06050
C200	C201	0.08237
C200	H113	0.05359
C200	H114	0.06037
C201	H115	0.05904
C201	H116	0.08365
C201	H117	0.05383
O68	C202	0.07241
C202	C203	0.11489
C202	H118	0.06119
C202	H119	0.05407
C203	C204	0.08157
C203	H120	0.06104
C203	H121	0.05405
C204	H122	0.05432
C204	H123	0.08327
C204	H124	0.05971
O69	C205	0.06597
C205	C206	0.10508
C205	H125	0.05090
C205	H126	0.07623
C206	C207	0.07184
C206	H127	0.05103
C206	H128	0.07641
C207	H129	0.07578
C207	H130	0.07724
C207	H131	0.05039
O70	C208	0.06457
C208	C209	0.10335
C208	H132	0.07927
C208	H133	0.04930
C209	C210	0.07037
C209	H134	0.07941
C209	H135	0.04936
C210	H136	0.04883
C210	H137	0.07594
C210	H138	0.07878
O71	C211	0.07316
C211	C212	0.11541
C211	H139	0.05360
C211	H140	0.06050
C212	C213	0.08237
C212	H141	0.05359
C212	H142	0.06037
C213	H143	0.05904
C213	H144	0.08365
C213	H145	0.05383
O72	C214	0.06457
C214	C215	0.10335
C214	H146	0.07927
C214	H147	0.04930
C215	C216	0.07037
C215	H148	0.07941
C215	H149	0.04936
C216	H150	0.04883
C216	H151	0.07594
C216	H152	0.07878
O73	C217	0.06597
C217	C218	0.10507
C217	H153	0.07624
C217	H154	0.05090
C218	C219	0.07183
C218	H155	0.07642
C218	H156	0.05103
C219	H157	0.05039
C219	H158	0.07724
C219	H159	0.07579
O74	C220	0.06457
C220	C221	0.10335
C220	H160	0.04930
C220	H161	0.07927
C221	C222	0.07038
C221	H162	0.04937
C221	H163	0.07941
C222	H164	0.07877
C222	H165	0.07594
C222	H166	0.04884
O75	C223	0.06597
C223	C224	0.10508
C223	H167	0.05090
C223	H168	0.07623
C224	C225	0.07184
C224	H169	0.05103
C224	H170	0.07641
C225	H171	0.07578
C225	H172	0.07724
C225	H173	0.05039
O76	C226	0.07241
C226	C227	0.11489
C226	H174	0.06119
C226	H175	0.05407
C227	C228	0.08157
C227	H176	0.06104
C227	H177	0.05405
C228	H178	0.05432
C228	H179	0.08327
C228	H180	0.05971
O77	C229	0.06597
C229	C230	0.10507
C229	H181	0.07624
C229	H182	0.05090
C230	C231	0.07183
C230	H183	0.07642
C230	H184	0.05103
C231	H185	0.05039
C231	H186	0.07724
C231	H187	0.07579
O78	C232	0.07241
C232	C233	0.11489
C232	H188	0.06119
C232	H189	0.05407
C233	C234	0.08157
C233	H190	0.06104
C233	H191	0.05405
C234	H192	0.05432
C234	H193	0.08327
C234	H194	0.05971
O79	C235	0.06597
C235	C236	0.10508
C235	H195	0.05090
C235	H196	0.07623
C236	C237	0.07184
C236	H197	0.05103
C236	H198	0.07641
C237	H199	0.07578
C237	H200	0.07724
C237	H201	0.05039
O80	C238	0.06457
C238	C239	0.10335
C238	H202	0.07927
C238	H203	0.04930
C239	C240	0.07037
C239	H204	0.07941
C239	H205	0.04936
C240	H206	0.04883
C240	H207	0.07594
C240	H208	0.07878
O81	C241	0.07317
C241	C242	0.11541
C241	H209	0.06050
C241	H210	0.05359
C242	C243	0.08238
C242	H211	0.06036
C242	H212	0.05359
C243	H213	0.05383
C243	H214	0.08365
C243	H215	0.05903
O82	C244	0.06457
C244	C245	0.10335
C244	H216	0.07927
C244	H217	0.04930
C245	C246	0.07037
C245	H218	0.07941
C245	H219	0.04936
C246	H220	0.04883
C246	H221	0.07594
C246	H222	0.07878
O83	C247	0.06597
C247	C248	0.10508
C247	H223	0.05090
C247	H224	0.07623
C248	C249	0.07184
C248	H225	0.05103
C248	H226	0.07641
C249	H227	0.07578
C249	H228	0.07724
C249	H229	0.05039
O84	C250	0.07241
C250	C251	0.11489
C250	H230	0.06119
C250	H231	0.05407
C251	C252	0.08157
C251	H232	0.06104
C251	H233	0.05405
C252	H234	0.05432
C252	H235	0.08327
C252	H236	0.05971
O85	C253	0.06597
C253	C254	0.10508
C253	H237	0.05090
C253	H238	0.07623
C254	C255	0.07184
C254	H239	0.05103
C254	H240	0.07641
C255	H241	0.07578
C255	H242	0.07724
C255	H243	0.05039
O86	C256	0.06457
C256	C257	0.10335
C256	H244	0.07927
C256	H245	0.04930
C257	C258	0.07037
C257	H246	0.07941
C257	H247	0.04936
C258	H248	0.04883
C258	H249	0.07594
C258	H250	0.07878
O87	C259	0.07316
C259	C260	0.11541
C259	H251	0.05360
C259	H252	0.06050
C260	C261	0.08237
C260	H253	0.05359
C260	H254	0.06037
C261	H255	0.05904
C261	H256	0.08365
C261	H257	0.05383
O88	C262	0.07241
C262	C263	0.11489
C262	H258	0.06119
C262	H259	0.05407
C263	C264	0.08157
C263	H260	0.06104
C263	H261	0.05405
C264	H262	0.05432
C264	H263	0.08327
C264	H264	0.05971
O89	C265	0.07317
C265	C266	0.11541
C265	H265	0.06050
C265	H266	0.05359
C266	C267	0.08238
C266	H267	0.06036
C266	H268	0.05359
C267	H269	0.05383
C267	H270	0.08365
C267	H271	0.05903
O90	C268	0.06457
C268	C269	0.10335
C268	H272	0.07927
C268	H273	0.04930
C269	C270	0.07037
C269	H274	0.07941
C269	H275	0.04936
C270	H276	0.04883
C270	H277	0.07594
C270	H278	0.07878
O91	C271	0.07316
C271	C272	0.11541
C271	H279	0.05360
C271	H280	0.06050
C272	C273	0.08237
C272	H281	0.05359
C272	H282	0.06037
C273	H283	0.05904
C273	H284	0.08365
C273	H285	0.05383
O92	C274	0.07241
C274	C275	0.11489
C274	H286	0.06119
C274	H287	0.05407
C275	C276	0.08157
C275	H288	0.06104
C275	H289	0.05405
C276	H290	0.05432
C276	H291	0.08327
C276	H292	0.05971
O93	C277	0.06597
C277	C278	0.10508
C277	H293	0.05090
C277	H294	0.07623
C278	C279	0.07184
C278	H295	0.05103
C278	H296	0.07641
C279	H297	0.07578
C279	H298	0.07724
C279	H299	0.05039
O94	C280	0.07241
C280	C281	0.11489
C280	H300	0.06119
C280	H301	0.05407
C281	C282	0.08157
C281	H302	0.06104
C281	H303	0.05405
C282	H304	0.05432
C282	H305	0.08327
C282	H306	0.05971
O95	C283	0.07316
C283	C284	0.11541
C283	H307	0.05360
C283	H308	0.06050
C284	C285	0.08237
C284	H309	0.05359
C284	H310	0.06037
C285	H311	0.05904
