data_NiPyC2_NiPyC2_aligned_CH2-CH2-CH3_NiPyC2_aligned_CH2-CH2-CH3_NiPyC2_aligned_CH2-CH2-CH3_NiPyC2_aligned_CH2-CH2-CH3_NiPyC2_aligned_CH2-CH2-CH3_NiPyC2_aligned_CH2-CH2-CH3_NiPyC2_aligned_CH2-CH2-CH3_NiPyC2_aligned_CH2-CH2-CH3_NiPyC2_aligned_CH2-CH2-CH3_NiPyC2_aligned_CH2-CH2-CH3_NiPyC2_aligned_CH2-CH2-CH3_NiPyC2_aligned_CH2-CH2-CH3_NiPyC2_aligned_CH2-CH2-CH3_NiPyC2_aligned_CH2-CH2-CH3_NiPyC2_aligned_CH2-CH2-CH3_NiPyC2_aligned_CH2-CH2-CH3_NiPyC2_aligned_CH2-CH2-CH3_NiPyC2_aligned_CH2-CH2-CH3_NiPyC2_aligned_CH2-CH2-CH3_NiPyC2_aligned_CH2-CH2-CH3_NiPyC2_aligned_CH2-CH2-CH3_NiPyC2_aligned_CH2-CH2-CH3_NiPyC2_aligned_CH2-CH2-CH3_NiPyC2_aligned_CH2-CH2-CH3_NiPyC2_aligned_CH2-CH2-CH3_NiPyC2_aligned_CH2-CH2-CH3_NiPyC2_aligned_CH2-CH2-CH3_NiPyC2_aligned_CH2-CH2-CH3_NiPyC2_aligned_CH2-CH2-CH3_NiPyC2_aligned_CH2-CH2-CH3_NiPyC2_aligned_CH2-CH2-CH3_NiPyC2_aligned_CH2-CH2-CH3_PM
_symmetry_space_group_name_H-M	'P1'
_cell_length_a	12.505600
_cell_length_b	25.046800
_cell_length_c	20.553600
_cell_angle_alpha	90.000000
_cell_angle_beta	91.269000
_cell_angle_gamma	90.000000
_symmetry_Int_Tables_number 1

loop_
_symmetry_equiv_pos_as_xyz
'x,y,z'

loop_
_atom_site_label
_atom_site_type_symbol
_atom_site_fract_x
_atom_site_fract_y
_atom_site_fract_z
Ni1	Ni	0.247400	0.376980	0.419715
O1	O	0.120650	0.174810	0.196450
O2	O	0.377450	0.066540	0.185100
O3	O	0.468450	0.176115	0.248650
O4	O	0.033250	0.059900	0.237100
N1	N	0.313950	0.421450	0.348100
N2	N	0.180550	0.323050	0.357550
C1	C	0.293900	0.479650	0.256700
H1	H	0.250100	0.493100	0.222050
C2	C	0.396600	0.499000	0.266850
C3	C	0.458550	0.477300	0.317700
H2	H	0.030100	0.488900	0.325250
C4	C	0.203850	0.259550	0.272050
C5	C	0.240150	0.301600	0.310850
H3	H	0.309550	0.315650	0.303950
C6	C	0.255750	0.440450	0.297500
H4	H	0.186050	0.426500	0.289550
C7	C	0.414250	0.438850	0.356850
H5	H	0.456650	0.424150	0.391300
C8	C	0.082250	0.302250	0.367300
H6	H	0.039650	0.317300	0.400350
C9	C	0.041300	0.260150	0.331300
C10	C	0.103950	0.238500	0.282300
C11	C	0.439000	0.044650	0.227500
C12	C	0.061000	0.193100	0.240750
Ni2	Ni	0.497400	0.123020	0.169715
O5	O	0.370650	0.325190	0.446450
O6	O	0.127450	0.433460	0.435100
O7	O	0.218450	0.323885	0.498650
O8	O	0.283250	0.440100	0.487100
N3	N	0.063950	0.078550	0.098100
N4	N	0.430550	0.176950	0.107550
C13	C	0.043900	0.020350	0.006700
C14	C	0.146600	0.001000	0.016850
C15	C	0.208550	0.022700	0.067700
C16	C	0.453850	0.240450	0.022050
C17	C	0.490150	0.198400	0.060850
H7	H	0.059550	0.184350	0.053950
C18	C	0.005750	0.059550	0.047500
H8	H	0.436050	0.073500	0.039550
C19	C	0.164250	0.061150	0.106850
H9	H	0.206650	0.075850	0.141300
C20	C	0.332250	0.197750	0.117300
H10	H	0.289650	0.182700	0.150350
C21	C	0.291300	0.239850	0.081300
C22	C	0.353950	0.261500	0.032300
C23	C	0.189000	0.455350	0.477500
C24	C	0.311000	0.306900	0.490750
Ni3	Ni	0.247400	0.376980	0.919715
O9	O	0.120650	0.174810	0.696450
O10	O	0.377450	0.066540	0.685100
O11	O	0.468450	0.176115	0.748650
O12	O	0.033250	0.059900	0.737100
N5	N	0.313950	0.421450	0.848100
N6	N	0.180550	0.323050	0.857550
C25	C	0.293900	0.479650	0.756700
C26	C	0.396600	0.499000	0.766850
C27	C	0.458550	0.477300	0.817700
C28	C	0.203850	0.259550	0.772050
C29	C	0.240150	0.301600	0.810850
H11	H	0.309550	0.315650	0.803950
C30	C	0.255750	0.440450	0.797500
H12	H	0.186050	0.426500	0.789550
C31	C	0.414250	0.438850	0.856850
H13	H	0.456650	0.424150	0.891300
C32	C	0.082250	0.302250	0.867300
H14	H	0.039650	0.317300	0.900350
C33	C	0.041300	0.260150	0.831300
C34	C	0.103950	0.238500	0.782300
C35	C	0.439000	0.044650	0.727500
C36	C	0.061000	0.193100	0.740750
Ni4	Ni	0.497400	0.123020	0.669715
O13	O	0.370650	0.325190	0.946450
O14	O	0.127450	0.433460	0.935100
O15	O	0.218450	0.323885	0.998650
O16	O	0.283250	0.440100	0.987100
N7	N	0.063950	0.078550	0.598100
N8	N	0.430550	0.176950	0.607550
C37	C	0.043900	0.020350	0.506700
H15	H	0.000100	0.006900	0.972050
C38	C	0.146600	0.001000	0.516850
C39	C	0.208550	0.022700	0.567700
H16	H	0.280100	0.011100	0.575250
C40	C	0.453850	0.240450	0.522050
H17	H	0.497550	0.254500	0.988900
C41	C	0.490150	0.198400	0.560850
H18	H	0.059550	0.184350	0.553950
C42	C	0.005750	0.059550	0.547500
H19	H	0.436050	0.073500	0.539550
C43	C	0.164250	0.061150	0.606850
H20	H	0.206650	0.075850	0.641300
C44	C	0.332250	0.197750	0.617300
H21	H	0.289650	0.182700	0.650350
C45	C	0.291300	0.239850	0.581300
H22	H	0.222300	0.253750	0.589550
C46	C	0.353950	0.261500	0.532300
C47	C	0.189000	0.455350	0.977500
C48	C	0.311000	0.306900	0.990750
Ni5	Ni	0.247400	0.876980	0.419715
O17	O	0.120650	0.674810	0.196450
O18	O	0.377450	0.566540	0.185100
O19	O	0.468450	0.676115	0.248650
O20	O	0.033250	0.559900	0.237100
N9	N	0.313950	0.921450	0.348100
N10	N	0.180550	0.823050	0.357550
C49	C	0.293900	0.979650	0.256700
C50	C	0.396600	0.999000	0.266850
C51	C	0.458550	0.977300	0.317700
C52	C	0.203850	0.759550	0.272050
C53	C	0.240150	0.801600	0.310850
H23	H	0.309550	0.815650	0.303950
C54	C	0.255750	0.940450	0.297500
H24	H	0.186050	0.926500	0.289550
C55	C	0.414250	0.938850	0.356850
H25	H	0.456650	0.924150	0.391300
C56	C	0.082250	0.802250	0.367300
H26	H	0.039650	0.817300	0.400350
C57	C	0.041300	0.760150	0.331300
H27	H	0.472300	0.746250	0.339550
C58	C	0.103950	0.738500	0.282300
C59	C	0.439000	0.544650	0.227500
C60	C	0.061000	0.693100	0.240750
Ni6	Ni	0.497400	0.623020	0.169715
O21	O	0.370650	0.825190	0.446450
O22	O	0.127450	0.933460	0.435100
O23	O	0.218450	0.823885	0.498650
O24	O	0.283250	0.940100	0.487100
N11	N	0.063950	0.578550	0.098100
N12	N	0.430550	0.676950	0.107550
C61	C	0.043900	0.520350	0.006700
H28	H	0.000100	0.506900	0.472050
C62	C	0.146600	0.501000	0.016850
C63	C	0.208550	0.522700	0.067700
H29	H	0.280100	0.511100	0.075250
C64	C	0.453850	0.740450	0.022050
C65	C	0.490150	0.698400	0.060850
H30	H	0.059550	0.684350	0.053950
C66	C	0.005750	0.559550	0.047500
H31	H	0.436050	0.573500	0.039550
C67	C	0.164250	0.561150	0.106850
H32	H	0.206650	0.575850	0.141300
C68	C	0.332250	0.697750	0.117300
H33	H	0.289650	0.682700	0.150350
C69	C	0.291300	0.739850	0.081300
C70	C	0.353950	0.761500	0.032300
C71	C	0.189000	0.955350	0.477500
C72	C	0.311000	0.806900	0.490750
Ni7	Ni	0.247400	0.876980	0.919715
O25	O	0.120650	0.674810	0.696450
O26	O	0.377450	0.566540	0.685100
O27	O	0.468450	0.676115	0.748650
O28	O	0.033250	0.559900	0.737100
N13	N	0.313950	0.921450	0.848100
N14	N	0.180550	0.823050	0.857550
C73	C	0.293900	0.979650	0.756700
C74	C	0.396600	0.999000	0.766850
C75	C	0.458550	0.977300	0.817700
H34	H	0.030100	0.988900	0.825250
C76	C	0.203850	0.759550	0.772050
H35	H	0.247550	0.745500	0.738900
C77	C	0.240150	0.801600	0.810850
H36	H	0.309550	0.815650	0.803950
C78	C	0.255750	0.940450	0.797500
H37	H	0.186050	0.926500	0.789550
C79	C	0.414250	0.938850	0.856850
H38	H	0.456650	0.924150	0.891300
C80	C	0.082250	0.802250	0.867300
H39	H	0.039650	0.817300	0.900350
C81	C	0.041300	0.760150	0.831300
H40	H	0.472300	0.746250	0.839550
C82	C	0.103950	0.738500	0.782300
C83	C	0.439000	0.544650	0.727500
C84	C	0.061000	0.693100	0.740750
Ni8	Ni	0.497400	0.623020	0.669715
O29	O	0.370650	0.825190	0.946450
O30	O	0.127450	0.933460	0.935100
O31	O	0.218450	0.823885	0.998650
O32	O	0.283250	0.940100	0.987100
N15	N	0.063950	0.578550	0.598100
N16	N	0.430550	0.676950	0.607550
C85	C	0.043900	0.520350	0.506700
C86	C	0.146600	0.501000	0.516850
C87	C	0.208550	0.522700	0.567700
C88	C	0.453850	0.740450	0.522050
H41	H	0.497550	0.754500	0.988900
C89	C	0.490150	0.698400	0.560850
H42	H	0.059550	0.684350	0.553950
C90	C	0.005750	0.559550	0.547500
H43	H	0.436050	0.573500	0.539550
C91	C	0.164250	0.561150	0.606850
H44	H	0.206650	0.575850	0.641300
C92	C	0.332250	0.697750	0.617300
H45	H	0.289650	0.682700	0.650350
C93	C	0.291300	0.739850	0.581300
H46	H	0.222300	0.753750	0.589550
C94	C	0.353950	0.761500	0.532300
C95	C	0.189000	0.955350	0.977500
C96	C	0.311000	0.806900	0.990750
Ni9	Ni	0.747400	0.376980	0.419715
O33	O	0.620650	0.174810	0.196450
O34	O	0.877450	0.066540	0.185100
O35	O	0.968450	0.176115	0.248650
O36	O	0.533250	0.059900	0.237100
N17	N	0.813950	0.421450	0.348100
N18	N	0.680550	0.323050	0.357550
C97	C	0.793900	0.479650	0.256700
C98	C	0.896600	0.499000	0.266850
C99	C	0.958550	0.477300	0.317700
C100	C	0.703850	0.259550	0.272050
H47	H	0.747550	0.245500	0.238900
C101	C	0.740150	0.301600	0.310850
H48	H	0.809550	0.315650	0.303950
C102	C	0.755750	0.440450	0.297500
H49	H	0.686050	0.426500	0.289550
C103	C	0.914250	0.438850	0.356850
H50	H	0.956650	0.424150	0.391300
C104	C	0.582250	0.302250	0.367300
H51	H	0.539650	0.317300	0.400350
C105	C	0.541300	0.260150	0.331300
H52	H	0.972300	0.246250	0.339550
C106	C	0.603950	0.238500	0.282300
C107	C	0.939000	0.044650	0.227500
C108	C	0.561000	0.193100	0.240750
Ni10	Ni	0.997400	0.123020	0.169715
O37	O	0.870650	0.325190	0.446450
O38	O	0.627450	0.433460	0.435100
O39	O	0.718450	0.323885	0.498650
O40	O	0.783250	0.440100	0.487100
N19	N	0.563950	0.078550	0.098100
N20	N	0.930550	0.176950	0.107550
C109	C	0.543900	0.020350	0.006700
H53	H	0.500100	0.006900	0.472050
C110	C	0.646600	0.001000	0.016850
C111	C	0.708550	0.022700	0.067700
H54	H	0.780100	0.011100	0.075250
C112	C	0.953850	0.240450	0.022050
H55	H	0.997550	0.254500	0.488900
C113	C	0.990150	0.198400	0.060850
H56	H	0.559550	0.184350	0.053950
C114	C	0.505750	0.059550	0.047500
H57	H	0.936050	0.073500	0.039550
C115	C	0.664250	0.061150	0.106850
H58	H	0.706650	0.075850	0.141300
C116	C	0.832250	0.197750	0.117300
H59	H	0.789650	0.182700	0.150350
C117	C	0.791300	0.239850	0.081300
H60	H	0.722300	0.253750	0.089550
C118	C	0.853950	0.261500	0.032300
C119	C	0.689000	0.455350	0.477500
C120	C	0.811000	0.306900	0.490750
Ni11	Ni	0.747400	0.376980	0.919715
O41	O	0.620650	0.174810	0.696450
O42	O	0.877450	0.066540	0.685100
O43	O	0.968450	0.176115	0.748650
O44	O	0.533250	0.059900	0.737100
N21	N	0.813950	0.421450	0.848100
N22	N	0.680550	0.323050	0.857550
C121	C	0.793900	0.479650	0.756700
H61	H	0.750100	0.493100	0.722050
C122	C	0.896600	0.499000	0.766850
C123	C	0.958550	0.477300	0.817700
H62	H	0.530100	0.488900	0.825250
C124	C	0.703850	0.259550	0.772050
H63	H	0.747550	0.245500	0.738900
C125	C	0.740150	0.301600	0.810850
H64	H	0.809550	0.315650	0.803950
C126	C	0.755750	0.440450	0.797500
H65	H	0.686050	0.426500	0.789550
C127	C	0.914250	0.438850	0.856850
H66	H	0.956650	0.424150	0.891300
C128	C	0.582250	0.302250	0.867300
H67	H	0.539650	0.317300	0.900350
C129	C	0.541300	0.260150	0.831300
H68	H	0.972300	0.246250	0.839550
C130	C	0.603950	0.238500	0.782300
C131	C	0.939000	0.044650	0.727500
C132	C	0.561000	0.193100	0.740750
Ni12	Ni	0.997400	0.123020	0.669715
O45	O	0.870650	0.325190	0.946450
O46	O	0.627450	0.433460	0.935100
O47	O	0.718450	0.323885	0.998650
O48	O	0.783250	0.440100	0.987100
N23	N	0.563950	0.078550	0.598100
N24	N	0.930550	0.176950	0.607550
C133	C	0.543900	0.020350	0.506700
C134	C	0.646600	0.001000	0.516850
C135	C	0.708550	0.022700	0.567700
C136	C	0.953850	0.240450	0.522050
C137	C	0.990150	0.198400	0.560850
H69	H	0.559550	0.184350	0.553950
C138	C	0.505750	0.059550	0.547500
H70	H	0.936050	0.073500	0.539550
C139	C	0.664250	0.061150	0.606850
H71	H	0.706650	0.075850	0.641300
C140	C	0.832250	0.197750	0.617300
H72	H	0.789650	0.182700	0.650350
C141	C	0.791300	0.239850	0.581300
C142	C	0.853950	0.261500	0.532300
C143	C	0.689000	0.455350	0.977500
C144	C	0.811000	0.306900	0.990750
Ni13	Ni	0.747400	0.876980	0.419715
O49	O	0.620650	0.674810	0.196450
O50	O	0.877450	0.566540	0.185100
O51	O	0.968450	0.676115	0.248650
O52	O	0.533250	0.559900	0.237100
N25	N	0.813950	0.921450	0.348100
N26	N	0.680550	0.823050	0.357550
C145	C	0.793900	0.979650	0.256700
H73	H	0.750100	0.993100	0.222050
C146	C	0.896600	0.999000	0.266850
C147	C	0.958550	0.977300	0.317700
H74	H	0.530100	0.988900	0.325250
C148	C	0.703850	0.759550	0.272050
C149	C	0.740150	0.801600	0.310850
H75	H	0.809550	0.815650	0.303950
C150	C	0.755750	0.940450	0.297500
H76	H	0.686050	0.926500	0.289550
C151	C	0.914250	0.938850	0.356850
H77	H	0.956650	0.924150	0.391300
C152	C	0.582250	0.802250	0.367300
H78	H	0.539650	0.817300	0.400350
C153	C	0.541300	0.760150	0.331300
H79	H	0.972300	0.746250	0.339550
C154	C	0.603950	0.738500	0.282300
C155	C	0.939000	0.544650	0.227500
C156	C	0.561000	0.693100	0.240750
Ni14	Ni	0.997400	0.623020	0.169715
O53	O	0.870650	0.825190	0.446450
O54	O	0.627450	0.933460	0.435100
O55	O	0.718450	0.823885	0.498650
O56	O	0.783250	0.940100	0.487100
N27	N	0.563950	0.578550	0.098100
N28	N	0.930550	0.676950	0.107550
C157	C	0.543900	0.520350	0.006700
C158	C	0.646600	0.501000	0.016850
C159	C	0.708550	0.522700	0.067700
C160	C	0.953850	0.740450	0.022050
C161	C	0.990150	0.698400	0.060850
H80	H	0.559550	0.684350	0.053950
C162	C	0.505750	0.559550	0.047500
H81	H	0.936050	0.573500	0.039550
C163	C	0.664250	0.561150	0.106850
H82	H	0.706650	0.575850	0.141300
C164	C	0.832250	0.697750	0.117300
H83	H	0.789650	0.682700	0.150350
C165	C	0.791300	0.739850	0.081300
H84	H	0.722300	0.753750	0.089550
C166	C	0.853950	0.761500	0.032300
C167	C	0.689000	0.955350	0.477500
C168	C	0.811000	0.806900	0.490750
Ni15	Ni	0.747400	0.876980	0.919715
O57	O	0.620650	0.674810	0.696450
O58	O	0.877450	0.566540	0.685100
O59	O	0.968450	0.676115	0.748650
O60	O	0.533250	0.559900	0.737100
N29	N	0.813950	0.921450	0.848100
N30	N	0.680550	0.823050	0.857550
C169	C	0.793900	0.979650	0.756700
C170	C	0.896600	0.999000	0.766850
C171	C	0.958550	0.977300	0.817700
H85	H	0.530100	0.988900	0.825250
C172	C	0.703850	0.759550	0.772050
C173	C	0.740150	0.801600	0.810850
H86	H	0.809550	0.815650	0.803950
C174	C	0.755750	0.940450	0.797500
H87	H	0.686050	0.926500	0.789550
C175	C	0.914250	0.938850	0.856850
H88	H	0.956650	0.924150	0.891300
C176	C	0.582250	0.802250	0.867300
H89	H	0.539650	0.817300	0.900350
C177	C	0.541300	0.760150	0.831300
C178	C	0.603950	0.738500	0.782300
C179	C	0.939000	0.544650	0.727500
C180	C	0.561000	0.693100	0.740750
Ni16	Ni	0.997400	0.623020	0.669715
O61	O	0.870650	0.825190	0.946450
O62	O	0.627450	0.933460	0.935100
O63	O	0.718450	0.823885	0.998650
O64	O	0.783250	0.940100	0.987100
N31	N	0.563950	0.578550	0.598100
N32	N	0.930550	0.676950	0.607550
C181	C	0.543900	0.520350	0.506700
H90	H	0.500100	0.506900	0.972050
C182	C	0.646600	0.501000	0.516850
C183	C	0.708550	0.522700	0.567700
H91	H	0.780100	0.511100	0.575250
C184	C	0.953850	0.740450	0.522050
C185	C	0.990150	0.698400	0.560850
H92	H	0.559550	0.684350	0.553950
C186	C	0.505750	0.559550	0.547500
H93	H	0.936050	0.573500	0.539550
C187	C	0.664250	0.561150	0.606850
H94	H	0.706650	0.575850	0.641300
C188	C	0.832250	0.697750	0.617300
H95	H	0.789650	0.682700	0.650350
C189	C	0.791300	0.739850	0.581300
H96	H	0.722300	0.753750	0.589550
C190	C	0.853950	0.761500	0.532300
C191	C	0.689000	0.955350	0.977500
C192	C	0.811000	0.806900	0.990750
C193	C	0.575008	0.495995	0.330053
C194	C	0.636140	0.469546	0.387275
H97	H	0.620758	0.487910	0.285346
H98	H	0.573662	0.539670	0.339647
C195	C	0.749722	0.491505	0.394109
H99	H	0.594092	0.477472	0.433385
H100	H	0.641157	0.425744	0.379118
H101	H	0.747920	0.535205	0.403263
H102	H	0.791888	0.471756	0.435685
H103	H	0.794845	0.483630	0.349156
C196	C	0.276227	0.237284	0.218248
C197	C	0.386318	0.263772	0.211017
H104	H	0.232456	0.241649	0.170876
H105	H	0.290390	0.194262	0.228584
C198	C	0.448698	0.237868	0.156347
H106	H	0.433809	0.259487	0.257092
H107	H	0.375910	0.306843	0.199422
H108	H	0.462016	0.194820	0.166711
H109	H	0.527644	0.257730	0.152233
H110	H	0.404287	0.242037	0.109211
C199	C	0.325007	0.004004	0.080054
C200	C	0.386138	0.030451	0.137277
H111	H	0.323660	-0.039671	0.089647
H112	H	0.370758	0.012090	0.035348
C201	C	0.499718	0.008491	0.144113
H113	H	0.391157	0.074254	0.129122
H114	H	0.344087	0.022525	0.183386
H115	H	0.544845	0.016367	0.099161
H116	H	0.541883	0.028239	0.185691
H117	H	0.497914	-0.035209	0.153265
C202	C	0.179336	0.262336	0.094883
C203	C	0.117654	0.235419	0.149897
H118	H	0.129678	0.258461	0.049592
H119	H	0.188293	0.305228	0.107810
C204	C	0.008378	0.261397	0.158278
H120	H	0.163681	0.239207	0.196572
H121	H	0.105105	0.192469	0.138391
H122	H	0.017768	0.304319	0.170768
H123	H	-0.034279	0.241221	0.198212
H124	H	-0.040635	0.257720	0.112758
C205	C	0.221734	0.501316	0.700473
C206	C	0.109015	0.477094	0.693490
H125	H	0.211937	0.545002	0.707830
H126	H	0.263143	0.493907	0.654022
C207	C	0.046827	0.501983	0.636378
H127	H	0.115003	0.433389	0.684828
H128	H	0.063831	0.484452	0.738602
H129	H	0.088900	0.494765	0.590159
H130	H	-0.034040	0.483795	0.632498
H131	H	0.037880	0.545678	0.643774
C208	C	0.276227	0.237284	0.718248
C209	C	0.386318	0.263772	0.711017
H132	H	0.232456	0.241649	0.670876
H133	H	0.290390	0.194262	0.728584
C210	C	0.448698	0.237868	0.656347
H134	H	0.433809	0.259487	0.757092
H135	H	0.375910	0.306843	0.699422
H136	H	0.462016	0.194820	0.666711
H137	H	0.527644	0.257730	0.652233
H138	H	0.404287	0.242037	0.609211
C211	C	-0.028265	-0.001315	0.450472
C212	C	-0.140982	0.022909	0.443487
H139	H	0.013146	0.006094	0.404022
H140	H	-0.038064	-0.045001	0.457829
C213	C	-0.203169	-0.001979	0.386374
H141	H	-0.186170	0.015551	0.488598
H142	H	-0.134990	0.066613	0.434825
H143	H	-0.212121	-0.045674	0.393769
H144	H	-0.284034	0.016210	0.382492
H145	H	-0.161092	0.005238	0.340156
C214	C	0.526227	0.262716	0.468248
C215	C	0.636318	0.236228	0.461017
H146	H	0.482456	0.258351	0.420876
H147	H	0.540390	0.305738	0.478584
C216	C	0.698698	0.262132	0.406347
H148	H	0.683809	0.240513	0.507092
H149	H	0.625910	0.193157	0.449422
H150	H	0.712016	0.305180	0.416711
H151	H	0.777644	0.242270	0.402233
H152	H	0.654287	0.257963	0.359211
C217	C	0.221734	1.001316	0.200473
C218	C	0.109015	0.977094	0.193490
H153	H	0.211937	1.045002	0.207830
H154	H	0.263143	0.993907	0.154022
C219	C	0.046827	1.001983	0.136378
H155	H	0.115003	0.933389	0.184828
H156	H	0.063831	0.984452	0.238602
H157	H	0.088900	0.994765	0.090159
H158	H	-0.034040	0.983795	0.132498
H159	H	0.037880	1.045678	0.143774
C220	C	0.276227	0.737284	0.218248
C221	C	0.386318	0.763772	0.211017
H160	H	0.232456	0.741649	0.170876
H161	H	0.290390	0.694262	0.228584
C222	C	0.448698	0.737868	0.156347
H162	H	0.433809	0.759487	0.257092
H163	H	0.375910	0.806843	0.199422
H164	H	0.462016	0.694820	0.166711
H165	H	0.527644	0.757730	0.152233
H166	H	0.404287	0.742037	0.109211
C223	C	-0.028265	0.498685	-0.049528
C224	C	-0.140982	0.522909	-0.056513
H167	H	0.013146	0.506094	-0.095978
H168	H	-0.038064	0.454999	-0.042171
C225	C	-0.203169	0.498021	-0.113626
H169	H	-0.186170	0.515551	-0.011402
H170	H	-0.134990	0.566613	-0.065175
H171	H	-0.212121	0.454326	-0.106231
H172	H	-0.284034	0.516210	-0.117508
H173	H	-0.161092	0.505238	-0.159844
C226	C	0.179336	0.762336	0.094883
C227	C	0.117654	0.735419	0.149897
H174	H	0.129678	0.758461	0.049592
H175	H	0.188293	0.805228	0.107810
C228	C	0.008378	0.761397	0.158278
H176	H	0.163681	0.739207	0.196572
H177	H	0.105105	0.692469	0.138391
H178	H	0.017768	0.804319	0.170768
H179	H	-0.034279	0.741221	0.198212
H180	H	-0.040635	0.757720	0.112758
C229	C	0.221734	1.001316	0.700473
C230	C	0.109015	0.977094	0.693490
H181	H	0.211937	1.045002	0.707830
H182	H	0.263143	0.993907	0.654022
C231	C	0.046827	1.001983	0.636378
H183	H	0.115003	0.933389	0.684828
H184	H	0.063831	0.984452	0.738602
H185	H	0.088900	0.994765	0.590159
H186	H	-0.034040	0.983795	0.632498
H187	H	0.037880	1.045678	0.643774
C232	C	-0.070664	0.737664	0.844883
C233	C	-0.132346	0.764581	0.899897
H188	H	-0.120322	0.741539	0.799592
H189	H	-0.061707	0.694772	0.857810
C234	C	-0.241622	0.738603	0.908278
H190	H	-0.086319	0.760793	0.946572
H191	H	-0.144895	0.807531	0.888391
H192	H	-0.232232	0.695681	0.920768
H193	H	-0.284279	0.758779	0.948212
H194	H	-0.290635	0.742280	0.862758
C235	C	0.325007	0.504004	0.580054
C236	C	0.386138	0.530451	0.637277
H195	H	0.323660	0.460329	0.589647
H196	H	0.370758	0.512090	0.535348
C237	C	0.499718	0.508491	0.644113
H197	H	0.391157	0.574254	0.629122
H198	H	0.344087	0.522525	0.683386
H199	H	0.544845	0.516367	0.599161
H200	H	0.541883	0.528239	0.685691
H201	H	0.497914	0.464791	0.653265
C238	C	0.526227	0.762716	0.468248
C239	C	0.636318	0.736228	0.461017
H202	H	0.482456	0.758351	0.420876
H203	H	0.540390	0.805738	0.478584
C240	C	0.698698	0.762132	0.406347
H204	H	0.683809	0.740513	0.507092
H205	H	0.625910	0.693157	0.449422
H206	H	0.712016	0.805180	0.416711
H207	H	0.777644	0.742270	0.402233
H208	H	0.654287	0.757963	0.359211
C241	C	0.721735	0.501315	0.200472
C242	C	0.609018	0.477091	0.193487
H209	H	0.763146	0.493906	0.154022
H210	H	0.711936	0.545001	0.207829
C243	C	0.546831	0.501979	0.136374
H211	H	0.563830	0.484449	0.238598
H212	H	0.615010	0.433387	0.184825
H213	H	0.537879	0.545674	0.143769
H214	H	0.465966	0.483790	0.132492
H215	H	0.588908	0.494762	0.090156
C244	C	0.429337	0.237663	0.344884
C245	C	0.367657	0.264578	0.399900
H216	H	0.438296	0.194771	0.357810
H217	H	0.379678	0.241538	0.299594
C246	C	0.258383	0.238599	0.408282
H218	H	0.355105	0.307528	0.388395
H219	H	0.413687	0.260790	0.446574
H220	H	0.209366	0.242278	0.362764
H221	H	0.215727	0.258774	0.448218
H222	H	0.267775	0.195677	0.420770
C247	C	0.471735	-0.001315	-0.049528
C248	C	0.359018	0.022909	-0.056513
H223	H	0.513146	0.006094	-0.095978
H224	H	0.461936	-0.045001	-0.042171
C249	C	0.296831	-0.001979	-0.113626
H225	H	0.313830	0.015551	-0.011402
H226	H	0.365010	0.066613	-0.065175
H227	H	0.287879	-0.045674	-0.106231
H228	H	0.215966	0.016210	-0.117508
H229	H	0.338908	0.005238	-0.159844
C250	C	1.026227	0.262716	-0.031752
C251	C	1.136318	0.236228	-0.038983
H230	H	0.982456	0.258351	-0.079124
H231	H	1.040390	0.305738	-0.021416
C252	C	1.198698	0.262132	-0.093653
H232	H	1.183809	0.240513	0.007092
H233	H	1.125910	0.193157	-0.050578
H234	H	1.212016	0.305180	-0.083289
H235	H	1.277644	0.242270	-0.097767
H236	H	1.154287	0.257963	-0.140789
C253	C	1.075007	0.495996	0.830054
C254	C	1.136138	0.469549	0.887277
H237	H	1.073660	0.539671	0.839647
H238	H	1.120758	0.487910	0.785348
C255	C	1.249718	0.491509	0.894113
H239	H	1.141157	0.425746	0.879122
H240	H	1.094087	0.477475	0.933386
H241	H	1.294845	0.483633	0.849161
H242	H	1.291883	0.471761	0.935691
H243	H	1.247914	0.535209	0.903265
C256	C	0.429336	0.237664	0.844883
C257	C	0.367654	0.264581	0.899897
H244	H	0.379678	0.241539	0.799592
H245	H	0.438293	0.194772	0.857810
C258	C	0.258378	0.238603	0.908278
H246	H	0.413681	0.260793	0.946572
H247	H	0.355105	0.307531	0.888391
H248	H	0.267768	0.195681	0.920768
H249	H	0.215721	0.258779	0.948212
H250	H	0.209365	0.242280	0.862758
C259	C	0.825007	0.004004	0.580054
C260	C	0.886138	0.030451	0.637277
H251	H	0.823660	-0.039671	0.589647
H252	H	0.870758	0.012090	0.535348
C261	C	0.999718	0.008491	0.644113
H253	H	0.891157	0.074254	0.629122
H254	H	0.844087	0.022525	0.683386
H255	H	1.044845	0.016367	0.599161
H256	H	1.041883	0.028239	0.685691
H257	H	0.997914	-0.035209	0.653265
C262	C	0.679336	0.262336	0.594883
C263	C	0.617654	0.235419	0.649897
H258	H	0.629678	0.258461	0.549592
H259	H	0.688293	0.305228	0.607810
C264	C	0.508378	0.261397	0.658278
H260	H	0.663681	0.239207	0.696572
H261	H	0.605105	0.192469	0.638391
H262	H	0.517768	0.304319	0.670768
H263	H	0.465721	0.241221	0.698212
H264	H	0.459365	0.257720	0.612758
C265	C	1.075008	0.995995	0.330053
C266	C	1.136140	0.969546	0.387275
H265	H	1.120758	0.987910	0.285346
H266	H	1.073662	1.039670	0.339647
C267	C	1.249722	0.991505	0.394109
H267	H	1.094092	0.977472	0.433385
H268	H	1.141157	0.925744	0.379118
H269	H	1.247920	1.035205	0.403263
H270	H	1.291888	0.971756	0.435685
H271	H	1.294845	0.983630	0.349156
C268	C	0.776227	0.737284	0.218248
C269	C	0.886318	0.763772	0.211017
H272	H	0.732456	0.741649	0.170876
H273	H	0.790390	0.694262	0.228584
C270	C	0.948698	0.737868	0.156347
H274	H	0.933809	0.759487	0.257092
H275	H	0.875910	0.806843	0.199422
H276	H	0.962016	0.694820	0.166711
H277	H	1.027644	0.757730	0.152233
H278	H	0.904287	0.742037	0.109211
C271	C	0.825007	0.504004	0.080054
C272	C	0.886138	0.530451	0.137277
H279	H	0.823660	0.460329	0.089647
H280	H	0.870758	0.512090	0.035348
C273	C	0.999718	0.508491	0.144113
H281	H	0.891157	0.574254	0.129122
H282	H	0.844087	0.522525	0.183386
H283	H	1.044845	0.516367	0.099161
H284	H	1.041883	0.528239	0.185691
H285	H	0.997914	0.464791	0.153265
C274	C	1.026227	0.762716	-0.031752
C275	C	1.136318	0.736228	-0.038983
H286	H	0.982456	0.758351	-0.079124
H287	H	1.040390	0.805738	-0.021416
C276	C	1.198698	0.762132	-0.093653
H288	H	1.183809	0.740513	0.007092
H289	H	1.125910	0.693157	-0.050578
H290	H	1.212016	0.805180	-0.083289
H291	H	1.277644	0.742270	-0.097767
H292	H	1.154287	0.757963	-0.140789
C277	C	0.721735	1.001315	0.700472
C278	C	0.609018	0.977091	0.693487
H293	H	0.763146	0.993906	0.654022
H294	H	0.711936	1.045001	0.707829
C279	C	0.546831	1.001979	0.636374
H295	H	0.563830	0.984449	0.738598
H296	H	0.615010	0.933387	0.684825
H297	H	0.537879	1.045674	0.643769
H298	H	0.465966	0.983790	0.632492
H299	H	0.588908	0.994762	0.590156
C280	C	0.776227	0.737284	0.718248
C281	C	0.886318	0.763772	0.711017
H300	H	0.732456	0.741649	0.670876
H301	H	0.790390	0.694262	0.728584
C282	C	0.948698	0.737868	0.656347
H302	H	0.933809	0.759487	0.757092
H303	H	0.875910	0.806843	0.699422
H304	H	0.962016	0.694820	0.666711
H305	H	1.027644	0.757730	0.652233
H306	H	0.904287	0.742037	0.609211
C283	C	0.471735	0.498685	0.450472
C284	C	0.359018	0.522909	0.443487
H307	H	0.513146	0.506094	0.404022
H308	H	0.461936	0.454999	0.457829
C285	C	0.296831	0.498021	0.386374
H309	H	0.313830	0.515551	0.488598
H310	H	0.365010	0.566613	0.434825
H311	H	0.287879	0.454326	0.393769
H312	H	0.215966	0.516210	0.382492
H313	H	0.338908	0.505238	0.340156
C286	C	1.026227	0.762716	0.468248
C287	C	1.136318	0.736228	0.461017
H314	H	0.982456	0.758351	0.420876
H315	H	1.040390	0.805738	0.478584
C288	C	1.198698	0.762132	0.406347
H316	H	1.183809	0.740513	0.507092
H317	H	1.125910	0.693157	0.449422
H318	H	1.212016	0.805180	0.416711
H319	H	1.277644	0.742270	0.402233
H320	H	1.154287	0.757963	0.359211

loop_
_geom_bond_atom_site_label_1
_geom_bond_atom_site_label_2
_geom_bond_distance
Ni1	N1	0.10740
Ni1	N2	0.10603
Ni1	O5	0.13634
Ni1	O6	0.13347
Ni1	O7	0.09944
Ni1	O8	0.09905
O1	C12	0.07652
O1	Ni10	0.13634
O2	C11	0.07788
O2	Ni2	0.13347
O3	Ni2	0.09944
O3	C108	0.09443
O4	C107	0.09596
O4	Ni10	0.09905
N1	C6	0.07943
N1	C7	0.10217
N2	C5	0.07870
N2	C8	0.10095
C1	H1	0.05745
C1	C2	0.10500
C1	C6	0.06824
C2	C3	0.08303
C2	C59	0.07369
C3	C7	0.07052
C3	C193	0.11859
H2	C99	0.07288
C4	C5	0.06776
C4	C10	0.10261
C4	C196	0.09289
C5	H3	0.07114
C6	H4	0.07153
C7	H5	0.05657
C8	H6	0.05598
C8	C9	0.06889
C9	C10	0.08243
C9	H52	0.07087
C10	C12	0.07505
C11	C50	0.07369
C11	O36	0.09596
C12	O35	0.09443
Ni2	N4	0.10603
Ni2	O33	0.13634
Ni2	O36	0.09905
Ni2	N19	0.10740
O5	C24	0.07652
O6	C23	0.07788
O7	C24	0.09443
O8	C23	0.09596
N3	C18	0.07943
N3	C19	0.10217
N3	Ni10	0.10740
N4	C17	0.07870
N4	C20	0.10095
C13	C14	0.10500
C13	C18	0.06824
C13	H15	0.05745
C14	C15	0.08303
C14	C95	0.07369
C15	C19	0.07052
C15	C199	0.11859
C16	C17	0.06776
C16	C22	0.10261
C16	H17	0.05662
C17	H56	0.07114
H7	C113	0.07114
C18	H57	0.07153
H8	C114	0.07153
C19	H9	0.05657
C20	H10	0.05598
C20	C21	0.06889
C21	C22	0.08243
C21	C202	0.11500
C22	C48	0.07505
C23	C86	0.07369
C24	C46	0.07505
Ni3	N5	0.10740
Ni3	N6	0.10603
Ni3	O13	0.13634
Ni3	O14	0.13347
Ni3	O15	0.09944
Ni3	O16	0.09905
O9	C36	0.07652
O9	Ni12	0.13634
O10	C35	0.07788
O10	Ni4	0.13347
O11	Ni4	0.09944
O11	C132	0.09443
O12	C131	0.09596
O12	Ni12	0.09905
N5	C30	0.07943
N5	C31	0.10217
N6	C29	0.07870
N6	C32	0.10095
C25	C26	0.10500
C25	C30	0.06824
C25	C205	0.09402
C26	C27	0.08303
C26	C83	0.07369
C27	C31	0.07052
C27	H62	0.07288
C28	C29	0.06776
C28	C34	0.10261
C28	C208	0.09289
C29	H11	0.07114
C30	H12	0.07153
C31	H13	0.05657
C32	H14	0.05598
C32	C33	0.06889
C33	C34	0.08243
C33	H68	0.07087
C34	C36	0.07505
C35	C74	0.07369
C35	O44	0.09596
C36	O43	0.09443
Ni4	N8	0.10603
Ni4	O41	0.13634
Ni4	O44	0.09905
Ni4	N23	0.10740
O13	C48	0.07652
O14	C47	0.07788
O15	C48	0.09443
O16	C47	0.09596
N7	C42	0.07943
N7	C43	0.10217
N7	Ni12	0.10740
N8	C41	0.07870
N8	C44	0.10095
C37	C38	0.10500
C37	C42	0.06824
C37	C211	0.09401
C38	C39	0.08303
C38	C71	0.07369
C39	H16	0.07288
C39	C43	0.07052
C40	C41	0.06776
C40	C46	0.10261
C40	C214	0.09289
C41	H69	0.07114
H18	C137	0.07114
C42	H70	0.07153
H19	C138	0.07153
C43	H20	0.05657
C44	H21	0.05598
C44	C45	0.06889
C45	H22	0.07087
C45	C46	0.08243
C47	C62	0.07369
Ni5	N9	0.10740
Ni5	N10	0.10603
Ni5	O21	0.13634
Ni5	O22	0.13347
Ni5	O23	0.09944
Ni5	O24	0.09905
O17	C60	0.07652
O17	Ni14	0.13634
O18	C59	0.07788
O18	Ni6	0.13347
O19	Ni6	0.09944
O19	C156	0.09443
O20	C155	0.09596
O20	Ni14	0.09905
N9	C54	0.07943
N9	C55	0.10217
N10	C53	0.07870
N10	C56	0.10095
C49	C50	0.10500
C49	C54	0.06824
C49	C217	0.09402
C50	C51	0.08303
C51	C55	0.07052
C51	H74	0.07288
C52	C53	0.06776
C52	C58	0.10261
C52	C220	0.09289
C53	H23	0.07114
C54	H24	0.07153
C55	H25	0.05657
C56	H26	0.05598
C56	C57	0.06889
C57	C58	0.08243
C57	H79	0.07087
H27	C153	0.07087
C58	C60	0.07505
C59	O52	0.09596
C60	O51	0.09443
Ni6	N12	0.10603
Ni6	O49	0.13634
Ni6	O52	0.09905
Ni6	N27	0.10740
O21	C72	0.07652
O22	C71	0.07788
O23	C72	0.09443
O24	C71	0.09596
N11	C66	0.07943
N11	C67	0.10217
N11	Ni14	0.10740
N12	C65	0.07870
N12	C68	0.10095
C61	C62	0.10500
C61	C66	0.06824
C61	C223	0.09401
H28	C85	0.05745
C62	C63	0.08303
C63	H29	0.07288
C63	C67	0.07052
C64	C65	0.06776
C64	C70	0.10261
C64	H41	0.05662
C65	H80	0.07114
H30	C161	0.07114
C66	H81	0.07153
H31	C162	0.07153
C67	H32	0.05657
C68	H33	0.05598
C68	C69	0.06889
C69	C70	0.08243
C69	C226	0.11500
C70	C96	0.07505
C72	C94	0.07505
Ni7	N13	0.10740
Ni7	N14	0.10603
Ni7	O29	0.13634
Ni7	O30	0.13347
Ni7	O31	0.09944
Ni7	O32	0.09905
O25	C84	0.07652
O25	Ni16	0.13634
O26	C83	0.07788
O26	Ni8	0.13347
O27	Ni8	0.09944
O27	C180	0.09443
O28	C179	0.09596
O28	Ni16	0.09905
N13	C78	0.07943
N13	C79	0.10217
N14	C77	0.07870
N14	C80	0.10095
C73	C74	0.10500
C73	C78	0.06824
C73	C229	0.09402
C74	C75	0.08303
C75	C79	0.07052
C75	H85	0.07288
H34	C171	0.07288
C76	H35	0.05662
C76	C77	0.06776
C76	C82	0.10261
C77	H36	0.07114
C78	H37	0.07153
C79	H38	0.05657
C80	H39	0.05598
C80	C81	0.06889
C81	C82	0.08243
C81	C232	0.11500
H40	C177	0.07087
C82	C84	0.07505
C83	O60	0.09596
C84	O59	0.09443
Ni8	N16	0.10603
Ni8	O57	0.13634
Ni8	O60	0.09905
Ni8	N31	0.10740
O29	C96	0.07652
O30	C95	0.07788
O31	C96	0.09443
O32	C95	0.09596
N15	C90	0.07943
N15	C91	0.10217
N15	Ni16	0.10740
N16	C89	0.07870
N16	C92	0.10095
C85	C86	0.10500
C85	C90	0.06824
C86	C87	0.08303
C87	C91	0.07052
C87	C235	0.11859
C88	C89	0.06776
C88	C94	0.10261
C88	C238	0.09289
C89	H92	0.07114
H42	C185	0.07114
C90	H93	0.07153
H43	C186	0.07153
C91	H44	0.05657
C92	H45	0.05598
C92	C93	0.06889
C93	H46	0.07087
C93	C94	0.08243
Ni9	N17	0.10740
Ni9	N18	0.10603
Ni9	O37	0.13634
Ni9	O38	0.13347
Ni9	O39	0.09944
Ni9	O40	0.09905
O33	C108	0.07652
O34	C107	0.07788
O34	Ni10	0.13347
O35	Ni10	0.09944
N17	C102	0.07943
N17	C103	0.10217
N18	C101	0.07870
N18	C104	0.10095
C97	C98	0.10500
C97	C102	0.06824
C97	C241	0.09401
C98	C99	0.08303
C98	C155	0.07369
C99	C103	0.07052
C100	H47	0.05662
C100	C101	0.06776
C100	C106	0.10261
C101	H48	0.07114
C102	H49	0.07153
C103	H50	0.05657
C104	H51	0.05598
C104	C105	0.06889
C105	C106	0.08243
C105	C244	0.11500
C106	C108	0.07505
C107	C146	0.07369
Ni10	N20	0.10603
O37	C120	0.07652
O38	C119	0.07788
O39	C120	0.09443
O40	C119	0.09596
N19	C114	0.07943
N19	C115	0.10217
N20	C113	0.07870
N20	C116	0.10095
C109	C110	0.10500
C109	C114	0.06824
C109	C247	0.09401
H53	C133	0.05745
C110	C111	0.08303
C110	C191	0.07369
C111	H54	0.07288
C111	C115	0.07052
C112	C113	0.06776
C112	C118	0.10261
C112	C250	0.09289
H55	C136	0.05662
C115	H58	0.05657
C116	H59	0.05598
C116	C117	0.06889
C117	H60	0.07087
C117	C118	0.08243
C118	C144	0.07505
C119	C182	0.07369
C120	C142	0.07505
Ni11	N21	0.10740
Ni11	N22	0.10603
Ni11	O45	0.13634
Ni11	O46	0.13347
Ni11	O47	0.09944
Ni11	O48	0.09905
O41	C132	0.07652
O42	C131	0.07788
O42	Ni12	0.13347
O43	Ni12	0.09944
N21	C126	0.07943
N21	C127	0.10217
N22	C125	0.07870
N22	C128	0.10095
C121	H61	0.05745
C121	C122	0.10500
C121	C126	0.06824
C122	C123	0.08303
C122	C179	0.07369
C123	C127	0.07052
C123	C253	0.11859
C124	H63	0.05662
C124	C125	0.06776
C124	C130	0.10261
C125	H64	0.07114
C126	H65	0.07153
C127	H66	0.05657
C128	H67	0.05598
C128	C129	0.06889
C129	C130	0.08243
C129	C256	0.11500
C130	C132	0.07505
C131	C170	0.07369
Ni12	N24	0.10603
O45	C144	0.07652
O46	C143	0.07788
O47	C144	0.09443
O48	C143	0.09596
N23	C138	0.07943
N23	C139	0.10217
N24	C137	0.07870
N24	C140	0.10095
C133	C134	0.10500
C133	C138	0.06824
C134	C135	0.08303
C134	C167	0.07369
C135	C139	0.07052
C135	C259	0.11859
C136	C137	0.06776
C136	C142	0.10261
C139	H71	0.05657
C140	H72	0.05598
C140	C141	0.06889
C141	C142	0.08243
C141	C262	0.11500
C143	C158	0.07369
Ni13	N25	0.10740
Ni13	N26	0.10603
Ni13	O53	0.13634
Ni13	O54	0.13347
Ni13	O55	0.09944
Ni13	O56	0.09905
O49	C156	0.07652
O50	C155	0.07788
O50	Ni14	0.13347
O51	Ni14	0.09944
N25	C150	0.07943
N25	C151	0.10217
N26	C149	0.07870
N26	C152	0.10095
C145	H73	0.05745
C145	C146	0.10500
C145	C150	0.06824
C146	C147	0.08303
C147	C151	0.07052
C147	C265	0.11859
C148	C149	0.06776
C148	C154	0.10261
C148	C268	0.09289
C149	H75	0.07114
C150	H76	0.07153
C151	H77	0.05657
C152	H78	0.05598
C152	C153	0.06889
C153	C154	0.08243
C154	C156	0.07505
Ni14	N28	0.10603
O53	C168	0.07652
O54	C167	0.07788
O55	C168	0.09443
O56	C167	0.09596
N27	C162	0.07943
N27	C163	0.10217
N28	C161	0.07870
N28	C164	0.10095
C157	C158	0.10500
C157	C162	0.06824
C157	H90	0.05745
C158	C159	0.08303
C159	C163	0.07052
C159	C271	0.11859
C160	C161	0.06776
C160	C166	0.10261
C160	C274	0.09289
C163	H82	0.05657
C164	H83	0.05598
C164	C165	0.06889
C165	H84	0.07087
C165	C166	0.08243
C166	C192	0.07505
C168	C190	0.07505
Ni15	N29	0.10740
Ni15	N30	0.10603
Ni15	O61	0.13634
Ni15	O62	0.13347
Ni15	O63	0.09944
Ni15	O64	0.09905
O57	C180	0.07652
O58	C179	0.07788
O58	Ni16	0.13347
O59	Ni16	0.09944
N29	C174	0.07943
N29	C175	0.10217
N30	C173	0.07870
N30	C176	0.10095
C169	C170	0.10500
C169	C174	0.06824
C169	C277	0.09401
C170	C171	0.08303
C171	C175	0.07052
C172	C173	0.06776
C172	C178	0.10261
C172	C280	0.09289
C173	H86	0.07114
C174	H87	0.07153
C175	H88	0.05657
C176	H89	0.05598
C176	C177	0.06889
C177	C178	0.08243
C178	C180	0.07505
Ni16	N32	0.10603
O61	C192	0.07652
O62	C191	0.07788
O63	C192	0.09443
O64	C191	0.09596
N31	C186	0.07943
N31	C187	0.10217
N32	C185	0.07870
N32	C188	0.10095
C181	C182	0.10500
C181	C186	0.06824
C181	C283	0.09401
C182	C183	0.08303
C183	H91	0.07288
C183	C187	0.07052
C184	C185	0.06776
C184	C190	0.10261
C184	C286	0.09289
C187	H94	0.05657
C188	H95	0.05598
C188	C189	0.06889
C189	H96	0.07087
C189	C190	0.08243
C193	C194	0.08781
C193	H97	0.06448
C193	H98	0.04474
C194	C195	0.11589
C194	H99	0.06290
C194	H100	0.04484
C195	H101	0.04468
C195	H102	0.06242
C195	H103	0.06418
C196	C197	0.11346
C196	H104	0.06465
C196	H105	0.04646
C197	C198	0.08690
C197	H106	0.06631
C197	H107	0.04580
C198	H108	0.04624
C198	H109	0.08151
C198	H110	0.06490
C199	C200	0.08781
C199	H111	0.04474
C199	H112	0.06448
C200	C201	0.11589
C200	H113	0.04484
C200	H114	0.06291
C201	H115	0.06418
C201	H116	0.06242
C201	H117	0.04468
C202	C203	0.08692
C202	H118	0.06732
C202	H119	0.04568
C203	C204	0.11263
C203	H120	0.06566
C203	H121	0.04620
C204	H122	0.04568
C204	H123	0.06182
C204	H124	0.06699
C205	C206	0.11550
C205	H125	0.04537
C205	H126	0.06267
C206	C207	0.08803
C206	H127	0.04496
C206	H128	0.06427
C207	H129	0.06292
C207	H130	0.08298
C207	H131	0.04521
C208	C209	0.11346
C208	H132	0.06465
C208	H133	0.04646
C209	C210	0.08690
C209	H134	0.06631
C209	H135	0.04580
C210	H136	0.04624
C210	H137	0.08151
C210	H138	0.06490
C211	C212	0.11550
C211	H139	0.06267
C211	H140	0.04537
C212	C213	0.08803
C212	H141	0.06427
C212	H142	0.04496
C213	H143	0.04521
C213	H144	0.08298
C213	H145	0.06292
C214	C215	0.11346
C214	H146	0.06465
C214	H147	0.04646
C215	C216	0.08690
C215	H148	0.06631
C215	H149	0.04580
C216	H150	0.04624
C216	H151	0.08151
C216	H152	0.06490
C217	C218	0.11550
C217	H153	0.04537
C217	H154	0.06267
C218	C219	0.08803
C218	H155	0.04496
C218	H156	0.06427
C219	H157	0.06292
C219	H158	0.08298
C219	H159	0.04521
C220	C221	0.11346
C220	H160	0.06465
C220	H161	0.04646
C221	C222	0.08690
C221	H162	0.06631
C221	H163	0.04580
C222	H164	0.04624
C222	H165	0.08151
C222	H166	0.06490
C223	C224	0.11550
C223	H167	0.06267
C223	H168	0.04537
C224	C225	0.08803
C224	H169	0.06427
C224	H170	0.04496
C225	H171	0.04521
C225	H172	0.08298
C225	H173	0.06292
C226	C227	0.08692
C226	H174	0.06732
C226	H175	0.04568
C227	C228	0.11263
C227	H176	0.06566
C227	H177	0.04620
C228	H178	0.04568
C228	H179	0.06182
C228	H180	0.06699
C229	C230	0.11550
C229	H181	0.04537
C229	H182	0.06267
C230	C231	0.08803
C230	H183	0.04496
C230	H184	0.06427
C231	H185	0.06292
C231	H186	0.08298
C231	H187	0.04521
C232	C233	0.08692
C232	H188	0.06732
C232	H189	0.04568
C233	C234	0.11263
C233	H190	0.06566
C233	H191	0.04620
C234	H192	0.04568
C234	H193	0.06182
C234	H194	0.06699
C235	C236	0.08781
C235	H195	0.04474
C235	H196	0.06448
C236	C237	0.11589
C236	H197	0.04484
C236	H198	0.06291
C237	H199	0.06418
C237	H200	0.06242
C237	H201	0.04468
C238	C239	0.11346
C238	H202	0.06465
C238	H203	0.04646
C239	C240	0.08690
C239	H204	0.06631
C239	H205	0.04580
C240	H206	0.04624
C240	H207	0.08151
C240	H208	0.06490
C241	C242	0.11550
C241	H209	0.06267
C241	H210	0.04537
C242	C243	0.08803
C242	H211	0.06427
C242	H212	0.04496
C243	H213	0.04521
C243	H214	0.08298
C243	H215	0.06292
C244	C245	0.08692
C244	H216	0.04569
C244	H217	0.06732
C245	C246	0.11263
C245	H218	0.04620
C245	H219	0.06566
C246	H220	0.06699
C246	H221	0.06182
C246	H222	0.04568
C247	C248	0.11550
C247	H223	0.06267
C247	H224	0.04537
C248	C249	0.08803
C248	H225	0.06427
C248	H226	0.04496
C249	H227	0.04521
C249	H228	0.08298
C249	H229	0.06292
C250	C251	0.11346
C250	H230	0.06465
C250	H231	0.04646
C251	C252	0.08690
C251	H232	0.06631
C251	H233	0.04580
C252	H234	0.04624
C252	H235	0.08151
C252	H236	0.06490
C253	C254	0.08781
C253	H237	0.04474
C253	H238	0.06448
C254	C255	0.11589
C254	H239	0.04484
C254	H240	0.06291
C255	H241	0.06418
C255	H242	0.06242
C255	H243	0.04468
C256	C257	0.08692
C256	H244	0.06732
C256	H245	0.04568
C257	C258	0.11263
C257	H246	0.06566
C257	H247	0.04620
C258	H248	0.04568
C258	H249	0.06182
C258	H250	0.06699
C259	C260	0.08781
C259	H251	0.04474
C259	H252	0.06448
C260	C261	0.11589
C260	H253	0.04484
C260	H254	0.06291
C261	H255	0.06418
C261	H256	0.06242
C261	H257	0.04468
C262	C263	0.08692
C262	H258	0.06732
C262	H259	0.04568
C263	C264	0.11263
C263	H260	0.06566
C263	H261	0.04620
C264	H262	0.04568
C264	H263	0.06182
C264	H264	0.06699
C265	C266	0.08781
C265	H265	0.06448
C265	H266	0.04474
C266	C267	0.11589
C266	H267	0.06290
C266	H268	0.04484
C267	H269	0.04468
C267	H270	0.06242
C267	H271	0.06418
C268	C269	0.11346
C268	H272	0.06465
C268	H273	0.04646
C269	C270	0.08690
C269	H274	0.06631
C269	H275	0.04580
C270	H276	0.04624
C270	H277	0.08151
C270	H278	0.06490
C271	C272	0.08781
C271	H279	0.04474
C271	H280	0.06448
C272	C273	0.11589
C272	H281	0.04484
C272	H282	0.06291
C273	H283	0.06418
C273	H284	0.06242
C273	H285	0.04468
C274	C275	0.11346
C274	H286	0.06465
C274	H287	0.04646
C275	C276	0.08690
C275	H288	0.06631
C275	H289	0.04580
C276	H290	0.04624
C276	H291	0.08151
C276	H292	0.06490
C277	C278	0.11550
C277	H293	0.06267
C277	H294	0.04537
C278	C279	0.08803
C278	H295	0.06427
C278	H296	0.04496
C279	H297	0.04521
C279	H298	0.08298
C279	H299	0.06292
C280	C281	0.11346
C280	H300	0.06465
C280	H301	0.04646
C281	C282	0.08690
C281	H302	0.06631
C281	H303	0.04580
C282	H304	0.04624
C282	H305	0.08151
C282	H306	0.06490
C283	C284	0.11550
C283	H307	0.06267
C283	H308	0.04537
C284	C285	0.08803
C284	H309	0.06427
C284	H310	0.04496
C285	H311	0.04521
C285	H312	0.08298
C285	H313	0.06292
C286	C287	0.11346
C286	H314	0.06465
C286	H315	0.04646
C287	C288	0.08690
C287	H316	0.06631
C287	H317	0.04580
C288	H318	0.04624
C288	H319	0.08151
C288	H320	0.06490
