data_NiPyC2_NiPyC2_aligned_O-CH3_NiPyC2_aligned_O-CH3_NiPyC2_aligned_O-CH3_NiPyC2_aligned_O-CH3_NiPyC2_aligned_O-CH3_NiPyC2_aligned_O-CH3_NiPyC2_aligned_O-CH3_NiPyC2_aligned_O-CH3_NiPyC2_aligned_O-CH3_NiPyC2_aligned_O-CH3_NiPyC2_aligned_O-CH3_NiPyC2_aligned_O-CH3_NiPyC2_aligned_O-CH3_NiPyC2_aligned_O-CH3_NiPyC2_aligned_O-CH3_NiPyC2_aligned_O-CH3_NiPyC2_aligned_O-CH3_NiPyC2_aligned_O-CH3_NiPyC2_aligned_O-CH3_NiPyC2_aligned_O-CH3_NiPyC2_aligned_O-CH3_NiPyC2_aligned_O-CH3_NiPyC2_aligned_O-CH3_NiPyC2_aligned_O-CH3_NiPyC2_aligned_O-CH3_NiPyC2_aligned_O-CH3_NiPyC2_aligned_O-CH3_NiPyC2_aligned_O-CH3_NiPyC2_aligned_O-CH3_NiPyC2_aligned_O-CH3_NiPyC2_aligned_O-CH3_NiPyC2_aligned_O-CH3_PM
_symmetry_space_group_name_H-M	'P1'
_cell_length_a	12.505600
_cell_length_b	25.046800
_cell_length_c	20.553600
_cell_angle_alpha	90.000000
_cell_angle_beta	91.269000
_cell_angle_gamma	90.000000
_symmetry_Int_Tables_number 1

loop_
_symmetry_equiv_pos_as_xyz
'x,y,z'

loop_
_atom_site_label
_atom_site_type_symbol
_atom_site_fract_x
_atom_site_fract_y
_atom_site_fract_z
Ni1	Ni	0.247400	0.376980	0.419715
O1	O	0.120650	0.174810	0.196450
O2	O	0.377450	0.066540	0.185100
O3	O	0.468450	0.176115	0.248650
O4	O	0.033250	0.059900	0.237100
N1	N	0.313950	0.421450	0.348100
N2	N	0.180550	0.323050	0.357550
C1	C	0.293900	0.479650	0.256700
H1	H	0.250100	0.493100	0.222050
C2	C	0.396600	0.499000	0.266850
C3	C	0.458550	0.477300	0.317700
H2	H	0.030100	0.488900	0.325250
C4	C	0.203850	0.259550	0.272050
H3	H	0.247550	0.245500	0.238900
C5	C	0.240150	0.301600	0.310850
H4	H	0.309550	0.315650	0.303950
C6	C	0.255750	0.440450	0.297500
C7	C	0.414250	0.438850	0.356850
H5	H	0.456650	0.424150	0.391300
C8	C	0.082250	0.302250	0.367300
C9	C	0.041300	0.260150	0.331300
H6	H	0.472300	0.246250	0.339550
C10	C	0.103950	0.238500	0.282300
C11	C	0.439000	0.044650	0.227500
C12	C	0.061000	0.193100	0.240750
Ni2	Ni	0.497400	0.123020	0.169715
O5	O	0.370650	0.325190	0.446450
O6	O	0.127450	0.433460	0.435100
O7	O	0.218450	0.323885	0.498650
O8	O	0.283250	0.440100	0.487100
N3	N	0.063950	0.078550	0.098100
N4	N	0.430550	0.176950	0.107550
C13	C	0.043900	0.020350	0.006700
H7	H	0.000100	0.006900	0.472050
C14	C	0.146600	0.001000	0.016850
C15	C	0.208550	0.022700	0.067700
H8	H	0.280100	0.011100	0.075250
C16	C	0.453850	0.240450	0.022050
H9	H	0.497550	0.254500	0.488900
C17	C	0.490150	0.198400	0.060850
H10	H	0.059550	0.184350	0.053950
C18	C	0.005750	0.059550	0.047500
H11	H	0.436050	0.073500	0.039550
C19	C	0.164250	0.061150	0.106850
C20	C	0.332250	0.197750	0.117300
H12	H	0.289650	0.182700	0.150350
C21	C	0.291300	0.239850	0.081300
H13	H	0.222300	0.253750	0.089550
C22	C	0.353950	0.261500	0.032300
C23	C	0.189000	0.455350	0.477500
C24	C	0.311000	0.306900	0.490750
Ni3	Ni	0.247400	0.376980	0.919715
O9	O	0.120650	0.174810	0.696450
O10	O	0.377450	0.066540	0.685100
O11	O	0.468450	0.176115	0.748650
O12	O	0.033250	0.059900	0.737100
N5	N	0.313950	0.421450	0.848100
N6	N	0.180550	0.323050	0.857550
C25	C	0.293900	0.479650	0.756700
H14	H	0.250100	0.493100	0.722050
C26	C	0.396600	0.499000	0.766850
C27	C	0.458550	0.477300	0.817700
H15	H	0.030100	0.488900	0.825250
C28	C	0.203850	0.259550	0.772050
H16	H	0.247550	0.245500	0.738900
C29	C	0.240150	0.301600	0.810850
C30	C	0.255750	0.440450	0.797500
H17	H	0.186050	0.426500	0.789550
C31	C	0.414250	0.438850	0.856850
C32	C	0.082250	0.302250	0.867300
H18	H	0.039650	0.317300	0.900350
C33	C	0.041300	0.260150	0.831300
H19	H	0.472300	0.246250	0.839550
C34	C	0.103950	0.238500	0.782300
C35	C	0.439000	0.044650	0.727500
C36	C	0.061000	0.193100	0.740750
Ni4	Ni	0.497400	0.123020	0.669715
O13	O	0.370650	0.325190	0.946450
O14	O	0.127450	0.433460	0.935100
O15	O	0.218450	0.323885	0.998650
O16	O	0.283250	0.440100	0.987100
N7	N	0.063950	0.078550	0.598100
N8	N	0.430550	0.176950	0.607550
C37	C	0.043900	0.020350	0.506700
H20	H	0.000100	0.006900	0.972050
C38	C	0.146600	0.001000	0.516850
C39	C	0.208550	0.022700	0.567700
H21	H	0.280100	0.011100	0.575250
C40	C	0.453850	0.240450	0.522050
H22	H	0.497550	0.254500	0.988900
C41	C	0.490150	0.198400	0.560850
C42	C	0.005750	0.059550	0.547500
H23	H	0.436050	0.073500	0.539550
C43	C	0.164250	0.061150	0.606850
H24	H	0.206650	0.075850	0.641300
C44	C	0.332250	0.197750	0.617300
C45	C	0.291300	0.239850	0.581300
H25	H	0.222300	0.253750	0.589550
C46	C	0.353950	0.261500	0.532300
C47	C	0.189000	0.455350	0.977500
C48	C	0.311000	0.306900	0.990750
Ni5	Ni	0.247400	0.876980	0.419715
O17	O	0.120650	0.674810	0.196450
O18	O	0.377450	0.566540	0.185100
O19	O	0.468450	0.676115	0.248650
O20	O	0.033250	0.559900	0.237100
N9	N	0.313950	0.921450	0.348100
N10	N	0.180550	0.823050	0.357550
C49	C	0.293900	0.979650	0.256700
H26	H	0.250100	0.993100	0.222050
C50	C	0.396600	0.999000	0.266850
C51	C	0.458550	0.977300	0.317700
H27	H	0.030100	0.988900	0.325250
C52	C	0.203850	0.759550	0.272050
H28	H	0.247550	0.745500	0.238900
C53	C	0.240150	0.801600	0.310850
C54	C	0.255750	0.940450	0.297500
H29	H	0.186050	0.926500	0.289550
C55	C	0.414250	0.938850	0.356850
C56	C	0.082250	0.802250	0.367300
H30	H	0.039650	0.817300	0.400350
C57	C	0.041300	0.760150	0.331300
H31	H	0.472300	0.746250	0.339550
C58	C	0.103950	0.738500	0.282300
C59	C	0.439000	0.544650	0.227500
C60	C	0.061000	0.693100	0.240750
Ni6	Ni	0.497400	0.623020	0.169715
O21	O	0.370650	0.825190	0.446450
O22	O	0.127450	0.933460	0.435100
O23	O	0.218450	0.823885	0.498650
O24	O	0.283250	0.940100	0.487100
N11	N	0.063950	0.578550	0.098100
N12	N	0.430550	0.676950	0.107550
C61	C	0.043900	0.520350	0.006700
H32	H	0.000100	0.506900	0.472050
C62	C	0.146600	0.501000	0.016850
C63	C	0.208550	0.522700	0.067700
H33	H	0.280100	0.511100	0.075250
C64	C	0.453850	0.740450	0.022050
H34	H	0.497550	0.754500	0.488900
C65	C	0.490150	0.698400	0.060850
H35	H	0.059550	0.684350	0.053950
C66	C	0.005750	0.559550	0.047500
C67	C	0.164250	0.561150	0.106850
H36	H	0.206650	0.575850	0.141300
C68	C	0.332250	0.697750	0.117300
C69	C	0.291300	0.739850	0.081300
H37	H	0.222300	0.753750	0.089550
C70	C	0.353950	0.761500	0.032300
C71	C	0.189000	0.955350	0.477500
C72	C	0.311000	0.806900	0.490750
Ni7	Ni	0.247400	0.876980	0.919715
O25	O	0.120650	0.674810	0.696450
O26	O	0.377450	0.566540	0.685100
O27	O	0.468450	0.676115	0.748650
O28	O	0.033250	0.559900	0.737100
N13	N	0.313950	0.921450	0.848100
N14	N	0.180550	0.823050	0.857550
C73	C	0.293900	0.979650	0.756700
H38	H	0.250100	0.993100	0.722050
C74	C	0.396600	0.999000	0.766850
C75	C	0.458550	0.977300	0.817700
H39	H	0.030100	0.988900	0.825250
C76	C	0.203850	0.759550	0.772050
H40	H	0.247550	0.745500	0.738900
C77	C	0.240150	0.801600	0.810850
C78	C	0.255750	0.940450	0.797500
C79	C	0.414250	0.938850	0.856850
H41	H	0.456650	0.924150	0.891300
C80	C	0.082250	0.802250	0.867300
H42	H	0.039650	0.817300	0.900350
C81	C	0.041300	0.760150	0.831300
H43	H	0.472300	0.746250	0.839550
C82	C	0.103950	0.738500	0.782300
C83	C	0.439000	0.544650	0.727500
C84	C	0.061000	0.693100	0.740750
Ni8	Ni	0.497400	0.623020	0.669715
O29	O	0.370650	0.825190	0.946450
O30	O	0.127450	0.933460	0.935100
O31	O	0.218450	0.823885	0.998650
O32	O	0.283250	0.940100	0.987100
N15	N	0.063950	0.578550	0.598100
N16	N	0.430550	0.676950	0.607550
C85	C	0.043900	0.520350	0.506700
H44	H	0.000100	0.506900	0.972050
C86	C	0.146600	0.501000	0.516850
C87	C	0.208550	0.522700	0.567700
H45	H	0.280100	0.511100	0.575250
C88	C	0.453850	0.740450	0.522050
H46	H	0.497550	0.754500	0.988900
C89	C	0.490150	0.698400	0.560850
C90	C	0.005750	0.559550	0.547500
H47	H	0.436050	0.573500	0.539550
C91	C	0.164250	0.561150	0.606850
H48	H	0.206650	0.575850	0.641300
C92	C	0.332250	0.697750	0.617300
H49	H	0.289650	0.682700	0.650350
C93	C	0.291300	0.739850	0.581300
H50	H	0.222300	0.753750	0.589550
C94	C	0.353950	0.761500	0.532300
C95	C	0.189000	0.955350	0.977500
C96	C	0.311000	0.806900	0.990750
Ni9	Ni	0.747400	0.376980	0.419715
O33	O	0.620650	0.174810	0.196450
O34	O	0.877450	0.066540	0.185100
O35	O	0.968450	0.176115	0.248650
O36	O	0.533250	0.059900	0.237100
N17	N	0.813950	0.421450	0.348100
N18	N	0.680550	0.323050	0.357550
C97	C	0.793900	0.479650	0.256700
H51	H	0.750100	0.493100	0.222050
C98	C	0.896600	0.499000	0.266850
C99	C	0.958550	0.477300	0.317700
H52	H	0.530100	0.488900	0.325250
C100	C	0.703850	0.259550	0.272050
H53	H	0.747550	0.245500	0.238900
C101	C	0.740150	0.301600	0.310850
H54	H	0.809550	0.315650	0.303950
C102	C	0.755750	0.440450	0.297500
C103	C	0.914250	0.438850	0.356850
H55	H	0.956650	0.424150	0.391300
C104	C	0.582250	0.302250	0.367300
C105	C	0.541300	0.260150	0.331300
H56	H	0.972300	0.246250	0.339550
C106	C	0.603950	0.238500	0.282300
C107	C	0.939000	0.044650	0.227500
C108	C	0.561000	0.193100	0.240750
Ni10	Ni	0.997400	0.123020	0.169715
O37	O	0.870650	0.325190	0.446450
O38	O	0.627450	0.433460	0.435100
O39	O	0.718450	0.323885	0.498650
O40	O	0.783250	0.440100	0.487100
N19	N	0.563950	0.078550	0.098100
N20	N	0.930550	0.176950	0.107550
C109	C	0.543900	0.020350	0.006700
H57	H	0.500100	0.006900	0.472050
C110	C	0.646600	0.001000	0.016850
C111	C	0.708550	0.022700	0.067700
H58	H	0.780100	0.011100	0.075250
C112	C	0.953850	0.240450	0.022050
H59	H	0.997550	0.254500	0.488900
C113	C	0.990150	0.198400	0.060850
C114	C	0.505750	0.059550	0.047500
H60	H	0.936050	0.073500	0.039550
C115	C	0.664250	0.061150	0.106850
C116	C	0.832250	0.197750	0.117300
C117	C	0.791300	0.239850	0.081300
H61	H	0.722300	0.253750	0.089550
C118	C	0.853950	0.261500	0.032300
C119	C	0.689000	0.455350	0.477500
C120	C	0.811000	0.306900	0.490750
Ni11	Ni	0.747400	0.376980	0.919715
O41	O	0.620650	0.174810	0.696450
O42	O	0.877450	0.066540	0.685100
O43	O	0.968450	0.176115	0.748650
O44	O	0.533250	0.059900	0.737100
N21	N	0.813950	0.421450	0.848100
N22	N	0.680550	0.323050	0.857550
C121	C	0.793900	0.479650	0.756700
H62	H	0.750100	0.493100	0.722050
C122	C	0.896600	0.499000	0.766850
C123	C	0.958550	0.477300	0.817700
H63	H	0.530100	0.488900	0.825250
C124	C	0.703850	0.259550	0.772050
H64	H	0.747550	0.245500	0.738900
C125	C	0.740150	0.301600	0.810850
H65	H	0.809550	0.315650	0.803950
C126	C	0.755750	0.440450	0.797500
H66	H	0.686050	0.426500	0.789550
C127	C	0.914250	0.438850	0.856850
C128	C	0.582250	0.302250	0.867300
C129	C	0.541300	0.260150	0.831300
H67	H	0.972300	0.246250	0.839550
C130	C	0.603950	0.238500	0.782300
C131	C	0.939000	0.044650	0.727500
C132	C	0.561000	0.193100	0.740750
Ni12	Ni	0.997400	0.123020	0.669715
O45	O	0.870650	0.325190	0.946450
O46	O	0.627450	0.433460	0.935100
O47	O	0.718450	0.323885	0.998650
O48	O	0.783250	0.440100	0.987100
N23	N	0.563950	0.078550	0.598100
N24	N	0.930550	0.176950	0.607550
C133	C	0.543900	0.020350	0.506700
H68	H	0.500100	0.006900	0.972050
C134	C	0.646600	0.001000	0.516850
C135	C	0.708550	0.022700	0.567700
H69	H	0.780100	0.011100	0.575250
C136	C	0.953850	0.240450	0.522050
H70	H	0.997550	0.254500	0.988900
C137	C	0.990150	0.198400	0.560850
H71	H	0.559550	0.184350	0.553950
C138	C	0.505750	0.059550	0.547500
C139	C	0.664250	0.061150	0.606850
C140	C	0.832250	0.197750	0.617300
H72	H	0.789650	0.182700	0.650350
C141	C	0.791300	0.239850	0.581300
H73	H	0.722300	0.253750	0.589550
C142	C	0.853950	0.261500	0.532300
C143	C	0.689000	0.455350	0.977500
C144	C	0.811000	0.306900	0.990750
Ni13	Ni	0.747400	0.876980	0.419715
O49	O	0.620650	0.674810	0.196450
O50	O	0.877450	0.566540	0.185100
O51	O	0.968450	0.676115	0.248650
O52	O	0.533250	0.559900	0.237100
N25	N	0.813950	0.921450	0.348100
N26	N	0.680550	0.823050	0.357550
C145	C	0.793900	0.979650	0.256700
H74	H	0.750100	0.993100	0.222050
C146	C	0.896600	0.999000	0.266850
C147	C	0.958550	0.977300	0.317700
H75	H	0.530100	0.988900	0.325250
C148	C	0.703850	0.759550	0.272050
H76	H	0.747550	0.745500	0.238900
C149	C	0.740150	0.801600	0.310850
C150	C	0.755750	0.940450	0.297500
H77	H	0.686050	0.926500	0.289550
C151	C	0.914250	0.938850	0.356850
C152	C	0.582250	0.802250	0.367300
H78	H	0.539650	0.817300	0.400350
C153	C	0.541300	0.760150	0.331300
H79	H	0.972300	0.746250	0.339550
C154	C	0.603950	0.738500	0.282300
C155	C	0.939000	0.544650	0.227500
C156	C	0.561000	0.693100	0.240750
Ni14	Ni	0.997400	0.623020	0.169715
O53	O	0.870650	0.825190	0.446450
O54	O	0.627450	0.933460	0.435100
O55	O	0.718450	0.823885	0.498650
O56	O	0.783250	0.940100	0.487100
N27	N	0.563950	0.578550	0.098100
N28	N	0.930550	0.676950	0.107550
C157	C	0.543900	0.520350	0.006700
H80	H	0.500100	0.506900	0.472050
C158	C	0.646600	0.501000	0.016850
C159	C	0.708550	0.522700	0.067700
H81	H	0.780100	0.511100	0.075250
C160	C	0.953850	0.740450	0.022050
H82	H	0.997550	0.754500	0.488900
C161	C	0.990150	0.698400	0.060850
H83	H	0.559550	0.684350	0.053950
C162	C	0.505750	0.559550	0.047500
C163	C	0.664250	0.561150	0.106850
H84	H	0.706650	0.575850	0.141300
C164	C	0.832250	0.697750	0.117300
C165	C	0.791300	0.739850	0.081300
H85	H	0.722300	0.753750	0.089550
C166	C	0.853950	0.761500	0.032300
C167	C	0.689000	0.955350	0.477500
C168	C	0.811000	0.806900	0.490750
Ni15	Ni	0.747400	0.876980	0.919715
O57	O	0.620650	0.674810	0.696450
O58	O	0.877450	0.566540	0.685100
O59	O	0.968450	0.676115	0.748650
O60	O	0.533250	0.559900	0.737100
N29	N	0.813950	0.921450	0.848100
N30	N	0.680550	0.823050	0.857550
C169	C	0.793900	0.979650	0.756700
H86	H	0.750100	0.993100	0.722050
C170	C	0.896600	0.999000	0.766850
C171	C	0.958550	0.977300	0.817700
H87	H	0.530100	0.988900	0.825250
C172	C	0.703850	0.759550	0.772050
H88	H	0.747550	0.745500	0.738900
C173	C	0.740150	0.801600	0.810850
C174	C	0.755750	0.940450	0.797500
H89	H	0.686050	0.926500	0.789550
C175	C	0.914250	0.938850	0.856850
C176	C	0.582250	0.802250	0.867300
H90	H	0.539650	0.817300	0.900350
C177	C	0.541300	0.760150	0.831300
H91	H	0.972300	0.746250	0.839550
C178	C	0.603950	0.738500	0.782300
C179	C	0.939000	0.544650	0.727500
C180	C	0.561000	0.693100	0.740750
Ni16	Ni	0.997400	0.623020	0.669715
O61	O	0.870650	0.825190	0.946450
O62	O	0.627450	0.933460	0.935100
O63	O	0.718450	0.823885	0.998650
O64	O	0.783250	0.940100	0.987100
N31	N	0.563950	0.578550	0.598100
N32	N	0.930550	0.676950	0.607550
C181	C	0.543900	0.520350	0.506700
H92	H	0.500100	0.506900	0.972050
C182	C	0.646600	0.501000	0.516850
C183	C	0.708550	0.522700	0.567700
H93	H	0.780100	0.511100	0.575250
C184	C	0.953850	0.740450	0.522050
H94	H	0.997550	0.754500	0.988900
C185	C	0.990150	0.698400	0.560850
C186	C	0.505750	0.559550	0.547500
C187	C	0.664250	0.561150	0.606850
C188	C	0.832250	0.697750	0.617300
H95	H	0.789650	0.682700	0.650350
C189	C	0.791300	0.739850	0.581300
H96	H	0.722300	0.753750	0.589550
C190	C	0.853950	0.761500	0.532300
C191	C	0.689000	0.955350	0.977500
C192	C	0.811000	0.806900	0.990750
O65	O	0.152526	0.420810	0.284136
C193	C	0.102062	0.381834	0.319666
H97	H	0.021501	0.374470	0.297832
H98	H	0.148268	0.343981	0.318377
H99	H	0.092502	0.395204	0.370744
O66	O	0.017339	0.323635	0.415820
C194	C	0.045061	0.365597	0.456320
H100	H	-0.021843	0.373590	0.489497
H101	H	0.059718	0.402195	0.427312
H102	H	0.117240	0.355297	0.486210
O67	O	0.229519	0.081917	0.157410
C195	C	0.198614	0.120476	0.201130
H103	H	0.266364	0.128950	0.235321
H104	H	0.129926	0.106052	0.229645
H105	H	0.177075	0.157979	0.175128
O68	O	0.593126	0.178917	0.049149
C196	C	0.641842	0.137556	0.082832
H106	H	0.722623	0.130890	0.063139
H107	H	0.650700	0.147789	0.135267
H108	H	0.594709	0.100234	0.076630
O69	O	0.479519	0.418084	0.907411
C197	C	0.448613	0.379524	0.951131
H109	H	0.516363	0.371051	0.985322
H110	H	0.427074	0.342021	0.925129
H111	H	0.379926	0.393949	0.979646
O70	O	0.343126	0.321082	0.799150
C198	C	0.391843	0.362444	0.832833
H112	H	0.472624	0.369110	0.813140
H113	H	0.344710	0.399765	0.826631
H114	H	0.400701	0.352210	0.885267
O71	O	-0.097473	0.079190	0.534135
C199	C	-0.147937	0.118166	0.569665
H115	H	-0.228498	0.125531	0.547831
H116	H	-0.157497	0.104797	0.620744
H117	H	-0.101731	0.156019	0.568375
O72	O	0.267339	0.176365	0.665820
C200	C	0.295061	0.134403	0.706320
H118	H	0.228157	0.126410	0.739497
H119	H	0.309718	0.097805	0.677312
H120	H	0.367240	0.144703	0.736210
O73	O	0.479519	0.918084	0.407411
C201	C	0.448613	0.879524	0.451131
H121	H	0.516363	0.871051	0.485322
H122	H	0.427074	0.842021	0.425129
H123	H	0.379926	0.893949	0.479646
O74	O	0.343126	0.821083	0.299149
C202	C	0.391842	0.862444	0.332832
H124	H	0.472623	0.869110	0.313139
H125	H	0.400700	0.852211	0.385267
H126	H	0.344709	0.899766	0.326630
O75	O	-0.097473	0.579190	0.034135
C203	C	-0.147937	0.618166	0.069665
H127	H	-0.228498	0.625531	0.047831
H128	H	-0.157497	0.604797	0.120744
H129	H	-0.101731	0.656019	0.068375
O76	O	0.267338	0.676364	0.165819
C204	C	0.295061	0.634402	0.206320
H130	H	0.228156	0.626409	0.239496
H131	H	0.367240	0.644702	0.236209
H132	H	0.309717	0.597805	0.177311
O77	O	0.152527	0.920810	0.784135
C205	C	0.102063	0.881834	0.819665
H133	H	0.021502	0.874469	0.797831
H134	H	0.092503	0.895203	0.870744
H135	H	0.148269	0.843981	0.818375
O78	O	0.343126	0.821083	0.799149
C206	C	0.391842	0.862444	0.832832
H136	H	0.472623	0.869110	0.813139
H137	H	0.400700	0.852211	0.885267
H138	H	0.344709	0.899766	0.826630
O79	O	-0.097473	0.579190	0.534135
C207	C	-0.147937	0.618166	0.569665
H139	H	-0.228498	0.625531	0.547831
H140	H	-0.157497	0.604797	0.620744
H141	H	-0.101731	0.656019	0.568375
O80	O	0.593126	0.678917	0.549149
C208	C	0.641842	0.637556	0.582832
H142	H	0.722623	0.630890	0.563139
H143	H	0.650700	0.647789	0.635267
H144	H	0.594709	0.600234	0.576630
O81	O	0.652527	0.420810	0.284135
C209	C	0.602063	0.381834	0.319665
H145	H	0.521502	0.374469	0.297831
H146	H	0.592503	0.395203	0.370744
H147	H	0.648269	0.343981	0.318375
O82	O	0.517339	0.323635	0.415820
C210	C	0.545061	0.365597	0.456320
H148	H	0.478157	0.373590	0.489497
H149	H	0.559718	0.402195	0.427312
H150	H	0.617240	0.355297	0.486210
O83	O	0.729519	0.081917	0.157410
C211	C	0.698614	0.120476	0.201130
H151	H	0.766364	0.128950	0.235321
H152	H	0.629926	0.106052	0.229645
H153	H	0.677075	0.157979	0.175128
O84	O	0.767338	0.176364	0.165819
C212	C	0.795061	0.134402	0.206320
H154	H	0.728156	0.126409	0.239496
H155	H	0.867240	0.144702	0.236209
H156	H	0.809717	0.097805	0.177311
O85	O	0.979519	0.418083	0.907410
C213	C	0.948614	0.379524	0.951130
H157	H	1.016364	0.371050	0.985321
H158	H	0.879926	0.393948	0.979645
H159	H	0.927075	0.342021	0.925128
O86	O	0.517338	0.323636	0.915819
C214	C	0.545061	0.365598	0.956320
H160	H	0.478156	0.373591	0.989496
H161	H	0.617240	0.355298	0.986209
H162	H	0.559717	0.402195	0.927311
O87	O	0.729519	0.081917	0.657410
C215	C	0.698614	0.120476	0.701130
H163	H	0.766364	0.128950	0.735321
H164	H	0.629926	0.106052	0.729645
H165	H	0.677075	0.157979	0.675128
O88	O	1.093126	0.178917	0.549149
C216	C	1.141842	0.137556	0.582832
H166	H	1.222623	0.130890	0.563139
H167	H	1.150700	0.147789	0.635267
H168	H	1.094709	0.100234	0.576630
O89	O	0.979519	0.918083	0.407410
C217	C	0.948614	0.879524	0.451130
H169	H	1.016364	0.871050	0.485321
H170	H	0.879926	0.893948	0.479645
H171	H	0.927075	0.842021	0.425128
O90	O	0.843126	0.821083	0.299149
C218	C	0.891842	0.862444	0.332832
H172	H	0.972623	0.869110	0.313139
H173	H	0.900700	0.852211	0.385267
H174	H	0.844709	0.899766	0.326630
O91	O	0.402527	0.579190	0.034135
C219	C	0.352063	0.618166	0.069665
H175	H	0.271502	0.625531	0.047831
H176	H	0.342503	0.604797	0.120744
H177	H	0.398269	0.656019	0.068375
O92	O	0.767338	0.676364	0.165819
C220	C	0.795061	0.634402	0.206320
H178	H	0.728156	0.626409	0.239496
H179	H	0.867240	0.644702	0.236209
H180	H	0.809717	0.597805	0.177311
O93	O	0.979519	0.918083	0.907410
C221	C	0.948614	0.879524	0.951130
H181	H	1.016364	0.871050	0.985321
H182	H	0.879926	0.893948	0.979645
H183	H	0.927075	0.842021	0.925128
O94	O	0.843126	0.821082	0.799150
C222	C	0.891843	0.862444	0.832833
H184	H	0.972624	0.869110	0.813140
H185	H	0.844710	0.899765	0.826631
H186	H	0.900701	0.852210	0.885267
O95	O	0.729519	0.581917	0.657410
C223	C	0.698614	0.620476	0.701130
H187	H	0.766364	0.628950	0.735321
H188	H	0.629926	0.606052	0.729645
H189	H	0.677075	0.657979	0.675128
O96	O	1.093126	0.678917	0.549149
C224	C	1.141842	0.637556	0.582832
H190	H	1.222623	0.630890	0.563139
H191	H	1.150700	0.647789	0.635267
H192	H	1.094709	0.600234	0.576630

loop_
_geom_bond_atom_site_label_1
_geom_bond_atom_site_label_2
_geom_bond_distance
Ni1	N1	0.10740
Ni1	N2	0.10603
Ni1	O5	0.13634
Ni1	O6	0.13347
Ni1	O7	0.09944
Ni1	O8	0.09905
O1	C12	0.07652
O1	Ni10	0.13634
O2	C11	0.07788
O2	Ni2	0.13347
O3	Ni2	0.09944
O3	C108	0.09443
O4	C107	0.09596
O4	Ni10	0.09905
N1	C6	0.07943
N1	C7	0.10217
N2	C5	0.07870
N2	C8	0.10095
C1	H1	0.05745
C1	C2	0.10500
C1	C6	0.06824
C2	C3	0.08303
C2	C59	0.07369
C3	C7	0.07052
C3	H52	0.07288
H2	C99	0.07288
C4	H3	0.05662
C4	C5	0.06776
C4	C10	0.10261
C5	H4	0.07114
C6	O65	0.10592
C7	H5	0.05657
C8	C9	0.06889
C8	O66	0.08381
C9	C10	0.08243
C9	H56	0.07087
H6	C105	0.07087
C10	C12	0.07505
C11	C50	0.07369
C11	O36	0.09596
C12	O35	0.09443
Ni2	N4	0.10603
Ni2	O33	0.13634
Ni2	O36	0.09905
Ni2	N19	0.10740
O5	C24	0.07652
O6	C23	0.07788
O7	C24	0.09443
O8	C23	0.09596
N3	C18	0.07943
N3	C19	0.10217
N3	Ni10	0.10740
N4	C17	0.07870
N4	C20	0.10095
C13	C14	0.10500
C13	C18	0.06824
C13	H20	0.05745
H7	C37	0.05745
C14	C15	0.08303
C14	C95	0.07369
C15	H8	0.07288
C15	C19	0.07052
C16	C17	0.06776
C16	C22	0.10261
C16	H22	0.05662
H9	C40	0.05662
C17	O68	0.10545
H10	C113	0.07114
C18	H60	0.07153
H11	C114	0.07153
C19	O67	0.08513
C20	H12	0.05598
C20	C21	0.06889
C21	H13	0.07087
C21	C22	0.08243
C22	C48	0.07505
C23	C86	0.07369
C24	C46	0.07505
Ni3	N5	0.10740
Ni3	N6	0.10603
Ni3	O13	0.13634
Ni3	O14	0.13347
Ni3	O15	0.09944
Ni3	O16	0.09905
O9	C36	0.07652
O9	Ni12	0.13634
O10	C35	0.07788
O10	Ni4	0.13347
O11	Ni4	0.09944
O11	C132	0.09443
O12	C131	0.09596
O12	Ni12	0.09905
N5	C30	0.07943
N5	C31	0.10217
N6	C29	0.07870
N6	C32	0.10095
C25	H14	0.05745
C25	C26	0.10500
C25	C30	0.06824
C26	C27	0.08303
C26	C83	0.07369
C27	C31	0.07052
C27	H63	0.07288
H15	C123	0.07288
C28	H16	0.05662
C28	C29	0.06776
C28	C34	0.10261
C29	O70	0.10545
C30	H17	0.07153
C31	O69	0.08513
C32	H18	0.05598
C32	C33	0.06889
C33	C34	0.08243
C33	H67	0.07087
H19	C129	0.07087
C34	C36	0.07505
C35	C74	0.07369
C35	O44	0.09596
C36	O43	0.09443
Ni4	N8	0.10603
Ni4	O41	0.13634
Ni4	O44	0.09905
Ni4	N23	0.10740
O13	C48	0.07652
O14	C47	0.07788
O15	C48	0.09443
O16	C47	0.09596
N7	C42	0.07943
N7	C43	0.10217
N7	Ni12	0.10740
N8	C41	0.07870
N8	C44	0.10095
C37	C38	0.10500
C37	C42	0.06824
C38	C39	0.08303
C38	C71	0.07369
C39	H21	0.07288
C39	C43	0.07052
C40	C41	0.06776
C40	C46	0.10261
C41	H71	0.07114
C42	O71	0.10592
H23	C138	0.07153
C43	H24	0.05657
C44	C45	0.06889
C44	O72	0.08381
C45	H25	0.07087
C45	C46	0.08243
C47	C62	0.07369
Ni5	N9	0.10740
Ni5	N10	0.10603
Ni5	O21	0.13634
Ni5	O22	0.13347
Ni5	O23	0.09944
Ni5	O24	0.09905
O17	C60	0.07652
O17	Ni14	0.13634
O18	C59	0.07788
O18	Ni6	0.13347
O19	Ni6	0.09944
O19	C156	0.09443
O20	C155	0.09596
O20	Ni14	0.09905
N9	C54	0.07943
N9	C55	0.10217
N10	C53	0.07870
N10	C56	0.10095
C49	H26	0.05745
C49	C50	0.10500
C49	C54	0.06824
C50	C51	0.08303
C51	C55	0.07052
C51	H75	0.07288
H27	C147	0.07288
C52	H28	0.05662
C52	C53	0.06776
C52	C58	0.10261
C53	O74	0.10545
C54	H29	0.07153
C55	O73	0.08513
C56	H30	0.05598
C56	C57	0.06889
C57	C58	0.08243
C57	H79	0.07087
H31	C153	0.07087
C58	C60	0.07505
C59	O52	0.09596
C60	O51	0.09443
Ni6	N12	0.10603
Ni6	O49	0.13634
Ni6	O52	0.09905
Ni6	N27	0.10740
O21	C72	0.07652
O22	C71	0.07788
O23	C72	0.09443
O24	C71	0.09596
N11	C66	0.07943
N11	C67	0.10217
N11	Ni14	0.10740
N12	C65	0.07870
N12	C68	0.10095
C61	C62	0.10500
C61	C66	0.06824
C61	H44	0.05745
H32	C85	0.05745
C62	C63	0.08303
C63	H33	0.07288
C63	C67	0.07052
C64	C65	0.06776
C64	C70	0.10261
C64	H46	0.05662
H34	C88	0.05662
C65	H83	0.07114
H35	C161	0.07114
C66	O75	0.10592
C67	H36	0.05657
C68	C69	0.06889
C68	O76	0.08381
C69	H37	0.07087
C69	C70	0.08243
C70	C96	0.07505
C72	C94	0.07505
Ni7	N13	0.10740
Ni7	N14	0.10603
Ni7	O29	0.13634
Ni7	O30	0.13347
Ni7	O31	0.09944
Ni7	O32	0.09905
O25	C84	0.07652
O25	Ni16	0.13634
O26	C83	0.07788
O26	Ni8	0.13347
O27	Ni8	0.09944
O27	C180	0.09443
O28	C179	0.09596
O28	Ni16	0.09905
N13	C78	0.07943
N13	C79	0.10217
N14	C77	0.07870
N14	C80	0.10095
C73	H38	0.05745
C73	C74	0.10500
C73	C78	0.06824
C74	C75	0.08303
C75	C79	0.07052
C75	H87	0.07288
H39	C171	0.07288
C76	H40	0.05662
C76	C77	0.06776
C76	C82	0.10261
C77	O78	0.10545
C78	O77	0.10592
C79	H41	0.05657
C80	H42	0.05598
C80	C81	0.06889
C81	C82	0.08243
C81	H91	0.07087
H43	C177	0.07087
C82	C84	0.07505
C83	O60	0.09596
C84	O59	0.09443
Ni8	N16	0.10603
Ni8	O57	0.13634
Ni8	O60	0.09905
Ni8	N31	0.10740
O29	C96	0.07652
O30	C95	0.07788
O31	C96	0.09443
O32	C95	0.09596
N15	C90	0.07943
N15	C91	0.10217
N15	Ni16	0.10740
N16	C89	0.07870
N16	C92	0.10095
C85	C86	0.10500
C85	C90	0.06824
C86	C87	0.08303
C87	H45	0.07288
C87	C91	0.07052
C88	C89	0.06776
C88	C94	0.10261
C89	O80	0.10545
C90	O79	0.10592
H47	C186	0.07153
C91	H48	0.05657
C92	H49	0.05598
C92	C93	0.06889
C93	H50	0.07087
C93	C94	0.08243
Ni9	N17	0.10740
Ni9	N18	0.10603
Ni9	O37	0.13634
Ni9	O38	0.13347
Ni9	O39	0.09944
Ni9	O40	0.09905
O33	C108	0.07652
O34	C107	0.07788
O34	Ni10	0.13347
O35	Ni10	0.09944
N17	C102	0.07943
N17	C103	0.10217
N18	C101	0.07870
N18	C104	0.10095
C97	H51	0.05745
C97	C98	0.10500
C97	C102	0.06824
C98	C99	0.08303
C98	C155	0.07369
C99	C103	0.07052
C100	H53	0.05662
C100	C101	0.06776
C100	C106	0.10261
C101	H54	0.07114
C102	O81	0.10592
C103	H55	0.05657
C104	C105	0.06889
C104	O82	0.08381
C105	C106	0.08243
C106	C108	0.07505
C107	C146	0.07369
Ni10	N20	0.10603
O37	C120	0.07652
O38	C119	0.07788
O39	C120	0.09443
O40	C119	0.09596
N19	C114	0.07943
N19	C115	0.10217
N20	C113	0.07870
N20	C116	0.10095
C109	C110	0.10500
C109	C114	0.06824
C109	H68	0.05745
H57	C133	0.05745
C110	C111	0.08303
C110	C191	0.07369
C111	H58	0.07288
C111	C115	0.07052
C112	C113	0.06776
C112	C118	0.10261
C112	H70	0.05662
H59	C136	0.05662
C115	O83	0.08513
C116	C117	0.06889
C116	O84	0.08381
C117	H61	0.07087
C117	C118	0.08243
C118	C144	0.07505
C119	C182	0.07369
C120	C142	0.07505
Ni11	N21	0.10740
Ni11	N22	0.10603
Ni11	O45	0.13634
Ni11	O46	0.13347
Ni11	O47	0.09944
Ni11	O48	0.09905
O41	C132	0.07652
O42	C131	0.07788
O42	Ni12	0.13347
O43	Ni12	0.09944
N21	C126	0.07943
N21	C127	0.10217
N22	C125	0.07870
N22	C128	0.10095
C121	H62	0.05745
C121	C122	0.10500
C121	C126	0.06824
C122	C123	0.08303
C122	C179	0.07369
C123	C127	0.07052
C124	H64	0.05662
C124	C125	0.06776
C124	C130	0.10261
C125	H65	0.07114
C126	H66	0.07153
C127	O85	0.08513
C128	C129	0.06889
C128	O86	0.08381
C129	C130	0.08243
C130	C132	0.07505
C131	C170	0.07369
Ni12	N24	0.10603
O45	C144	0.07652
O46	C143	0.07788
O47	C144	0.09443
O48	C143	0.09596
N23	C138	0.07943
N23	C139	0.10217
N24	C137	0.07870
N24	C140	0.10095
C133	C134	0.10500
C133	C138	0.06824
C134	C135	0.08303
C134	C167	0.07369
C135	H69	0.07288
C135	C139	0.07052
C136	C137	0.06776
C136	C142	0.10261
C137	O88	0.10545
C139	O87	0.08513
C140	H72	0.05598
C140	C141	0.06889
C141	H73	0.07087
C141	C142	0.08243
C143	C158	0.07369
Ni13	N25	0.10740
Ni13	N26	0.10603
Ni13	O53	0.13634
Ni13	O54	0.13347
Ni13	O55	0.09944
Ni13	O56	0.09905
O49	C156	0.07652
O50	C155	0.07788
O50	Ni14	0.13347
O51	Ni14	0.09944
N25	C150	0.07943
N25	C151	0.10217
N26	C149	0.07870
N26	C152	0.10095
C145	H74	0.05745
C145	C146	0.10500
C145	C150	0.06824
C146	C147	0.08303
C147	C151	0.07052
C148	H76	0.05662
C148	C149	0.06776
C148	C154	0.10261
C149	O90	0.10545
C150	H77	0.07153
C151	O89	0.08513
C152	H78	0.05598
C152	C153	0.06889
C153	C154	0.08243
C154	C156	0.07505
Ni14	N28	0.10603
O53	C168	0.07652
O54	C167	0.07788
O55	C168	0.09443
O56	C167	0.09596
N27	C162	0.07943
N27	C163	0.10217
N28	C161	0.07870
N28	C164	0.10095
C157	C158	0.10500
C157	C162	0.06824
C157	H92	0.05745
H80	C181	0.05745
C158	C159	0.08303
C159	H81	0.07288
C159	C163	0.07052
C160	C161	0.06776
C160	C166	0.10261
C160	H94	0.05662
H82	C184	0.05662
C162	O91	0.10592
C163	H84	0.05657
C164	C165	0.06889
C164	O92	0.08381
C165	H85	0.07087
C165	C166	0.08243
C166	C192	0.07505
C168	C190	0.07505
Ni15	N29	0.10740
Ni15	N30	0.10603
Ni15	O61	0.13634
Ni15	O62	0.13347
Ni15	O63	0.09944
Ni15	O64	0.09905
O57	C180	0.07652
O58	C179	0.07788
O58	Ni16	0.13347
O59	Ni16	0.09944
N29	C174	0.07943
N29	C175	0.10217
N30	C173	0.07870
N30	C176	0.10095
C169	H86	0.05745
C169	C170	0.10500
C169	C174	0.06824
C170	C171	0.08303
C171	C175	0.07052
C172	H88	0.05662
C172	C173	0.06776
C172	C178	0.10261
C173	O94	0.10545
C174	H89	0.07153
C175	O93	0.08513
C176	H90	0.05598
C176	C177	0.06889
C177	C178	0.08243
C178	C180	0.07505
Ni16	N32	0.10603
O61	C192	0.07652
O62	C191	0.07788
O63	C192	0.09443
O64	C191	0.09596
N31	C186	0.07943
N31	C187	0.10217
N32	C185	0.07870
N32	C188	0.10095
C181	C182	0.10500
C181	C186	0.06824
C182	C183	0.08303
C183	H93	0.07288
C183	C187	0.07052
C184	C185	0.06776
C184	C190	0.10261
C185	O96	0.10545
C187	O95	0.08513
C188	H95	0.05598
C188	C189	0.06889
C189	H96	0.07087
C189	C190	0.08243
O65	C193	0.07299
C193	H97	0.08379
C193	H98	0.05975
C193	H99	0.05366
O66	C194	0.06457
C194	H100	0.07511
C194	H101	0.04895
C194	H102	0.07880
O67	C195	0.06598
C195	H103	0.07636
C195	H104	0.07576
C195	H105	0.05046
O68	C196	0.07224
C196	H106	0.08341
C196	H107	0.05415
C196	H108	0.06044
O69	C197	0.06598
C197	H109	0.07636
C197	H110	0.05046
C197	H111	0.07576
O70	C198	0.07224
C198	H112	0.08341
C198	H113	0.06044
C198	H114	0.05415
O71	C199	0.07299
C199	H115	0.08379
C199	H116	0.05366
C199	H117	0.05975
O72	C200	0.06457
C200	H118	0.07511
C200	H119	0.04895
C200	H120	0.07880
O73	C201	0.06598
C201	H121	0.07636
C201	H122	0.05046
C201	H123	0.07576
O74	C202	0.07224
C202	H124	0.08341
C202	H125	0.05415
C202	H126	0.06044
O75	C203	0.07299
C203	H127	0.08379
C203	H128	0.05366
C203	H129	0.05975
O76	C204	0.06457
C204	H130	0.07511
C204	H131	0.07880
C204	H132	0.04895
O77	C205	0.07299
C205	H133	0.08379
C205	H134	0.05366
C205	H135	0.05975
O78	C206	0.07224
C206	H136	0.08341
C206	H137	0.05415
C206	H138	0.06044
O79	C207	0.07299
C207	H139	0.08379
C207	H140	0.05366
C207	H141	0.05975
O80	C208	0.07224
C208	H142	0.08341
C208	H143	0.05415
C208	H144	0.06044
O81	C209	0.07299
C209	H145	0.08379
C209	H146	0.05366
C209	H147	0.05975
O82	C210	0.06457
C210	H148	0.07511
C210	H149	0.04895
C210	H150	0.07880
O83	C211	0.06598
C211	H151	0.07636
C211	H152	0.07576
C211	H153	0.05046
O84	C212	0.06457
C212	H154	0.07511
C212	H155	0.07880
C212	H156	0.04895
O85	C213	0.06598
C213	H157	0.07636
C213	H158	0.07576
C213	H159	0.05046
O86	C214	0.06457
C214	H160	0.07511
C214	H161	0.07880
C214	H162	0.04895
O87	C215	0.06598
C215	H163	0.07636
C215	H164	0.07576
C215	H165	0.05046
O88	C216	0.07224
C216	H166	0.08341
C216	H167	0.05415
C216	H168	0.06044
O89	C217	0.06598
C217	H169	0.07636
C217	H170	0.07576
C217	H171	0.05046
O90	C218	0.07224
C218	H172	0.08341
C218	H173	0.05415
C218	H174	0.06044
O91	C219	0.07299
C219	H175	0.08379
C219	H176	0.05366
C219	H177	0.05975
O92	C220	0.06457
C220	H178	0.07511
C220	H179	0.07880
C220	H180	0.04895
O93	C221	0.06598
C221	H181	0.07636
C221	H182	0.07576
C221	H183	0.05046
O94	C222	0.07224
C222	H184	0.08341
C222	H185	0.06044
C222	H186	0.05415
O95	C223	0.06598
C223	H187	0.07636
C223	H188	0.07576
C223	H189	0.05046
O96	C224	0.07224
C224	H190	0.08341
C224	H191	0.05415
C224	H192	0.06044
