data_NiPyC2_NiPyC2_aligned_O-CH2-CH3_NiPyC2_aligned_O-CH2-CH3_NiPyC2_aligned_O-CH2-CH3_NiPyC2_aligned_O-CH2-CH3_NiPyC2_aligned_O-CH2-CH3_NiPyC2_aligned_O-CH2-CH3_NiPyC2_aligned_O-CH2-CH3_NiPyC2_aligned_O-CH2-CH3_NiPyC2_aligned_O-CH2-CH3_NiPyC2_aligned_O-CH2-CH3_NiPyC2_aligned_O-CH2-CH3_NiPyC2_aligned_O-CH2-CH3_NiPyC2_aligned_O-CH2-CH3_NiPyC2_aligned_O-CH2-CH3_NiPyC2_aligned_O-CH2-CH3_NiPyC2_aligned_O-CH2-CH3_NiPyC2_aligned_O-CH2-CH3_NiPyC2_aligned_O-CH2-CH3_NiPyC2_aligned_O-CH2-CH3_NiPyC2_aligned_O-CH2-CH3_NiPyC2_aligned_O-CH2-CH3_NiPyC2_aligned_O-CH2-CH3_NiPyC2_aligned_O-CH2-CH3_NiPyC2_aligned_O-CH2-CH3_NiPyC2_aligned_O-CH2-CH3_NiPyC2_aligned_O-CH2-CH3_NiPyC2_aligned_O-CH2-CH3_NiPyC2_aligned_O-CH2-CH3_NiPyC2_aligned_O-CH2-CH3_NiPyC2_aligned_O-CH2-CH3_NiPyC2_aligned_O-CH2-CH3_NiPyC2_aligned_O-CH2-CH3_PM
_symmetry_space_group_name_H-M	'P1'
_cell_length_a	12.505600
_cell_length_b	25.046800
_cell_length_c	20.553600
_cell_angle_alpha	90.000000
_cell_angle_beta	91.269000
_cell_angle_gamma	90.000000
_symmetry_Int_Tables_number 1

loop_
_symmetry_equiv_pos_as_xyz
'x,y,z'

loop_
_atom_site_label
_atom_site_type_symbol
_atom_site_fract_x
_atom_site_fract_y
_atom_site_fract_z
Ni1	Ni	0.247400	0.376980	0.419715
O1	O	0.120650	0.174810	0.196450
O2	O	0.377450	0.066540	0.185100
O3	O	0.468450	0.176115	0.248650
O4	O	0.033250	0.059900	0.237100
N1	N	0.313950	0.421450	0.348100
N2	N	0.180550	0.323050	0.357550
C1	C	0.293900	0.479650	0.256700
H1	H	0.250100	0.493100	0.222050
C2	C	0.396600	0.499000	0.266850
C3	C	0.458550	0.477300	0.317700
H2	H	0.030100	0.488900	0.325250
C4	C	0.203850	0.259550	0.272050
C5	C	0.240150	0.301600	0.310850
H3	H	0.309550	0.315650	0.303950
C6	C	0.255750	0.440450	0.297500
H4	H	0.186050	0.426500	0.289550
C7	C	0.414250	0.438850	0.356850
H5	H	0.456650	0.424150	0.391300
C8	C	0.082250	0.302250	0.367300
H6	H	0.039650	0.317300	0.400350
C9	C	0.041300	0.260150	0.331300
H7	H	0.472300	0.246250	0.339550
C10	C	0.103950	0.238500	0.282300
C11	C	0.439000	0.044650	0.227500
C12	C	0.061000	0.193100	0.240750
Ni2	Ni	0.497400	0.123020	0.169715
O5	O	0.370650	0.325190	0.446450
O6	O	0.127450	0.433460	0.435100
O7	O	0.218450	0.323885	0.498650
O8	O	0.283250	0.440100	0.487100
N3	N	0.063950	0.078550	0.098100
N4	N	0.430550	0.176950	0.107550
C13	C	0.043900	0.020350	0.006700
H8	H	0.000100	0.006900	0.472050
C14	C	0.146600	0.001000	0.016850
C15	C	0.208550	0.022700	0.067700
C16	C	0.453850	0.240450	0.022050
C17	C	0.490150	0.198400	0.060850
H9	H	0.059550	0.184350	0.053950
C18	C	0.005750	0.059550	0.047500
H10	H	0.436050	0.073500	0.039550
C19	C	0.164250	0.061150	0.106850
H11	H	0.206650	0.075850	0.141300
C20	C	0.332250	0.197750	0.117300
H12	H	0.289650	0.182700	0.150350
C21	C	0.291300	0.239850	0.081300
C22	C	0.353950	0.261500	0.032300
C23	C	0.189000	0.455350	0.477500
C24	C	0.311000	0.306900	0.490750
Ni3	Ni	0.247400	0.376980	0.919715
O9	O	0.120650	0.174810	0.696450
O10	O	0.377450	0.066540	0.685100
O11	O	0.468450	0.176115	0.748650
O12	O	0.033250	0.059900	0.737100
N5	N	0.313950	0.421450	0.848100
N6	N	0.180550	0.323050	0.857550
C25	C	0.293900	0.479650	0.756700
H13	H	0.250100	0.493100	0.722050
C26	C	0.396600	0.499000	0.766850
C27	C	0.458550	0.477300	0.817700
H14	H	0.030100	0.488900	0.825250
C28	C	0.203850	0.259550	0.772050
C29	C	0.240150	0.301600	0.810850
H15	H	0.309550	0.315650	0.803950
C30	C	0.255750	0.440450	0.797500
H16	H	0.186050	0.426500	0.789550
C31	C	0.414250	0.438850	0.856850
H17	H	0.456650	0.424150	0.891300
C32	C	0.082250	0.302250	0.867300
H18	H	0.039650	0.317300	0.900350
C33	C	0.041300	0.260150	0.831300
C34	C	0.103950	0.238500	0.782300
C35	C	0.439000	0.044650	0.727500
C36	C	0.061000	0.193100	0.740750
Ni4	Ni	0.497400	0.123020	0.669715
O13	O	0.370650	0.325190	0.946450
O14	O	0.127450	0.433460	0.935100
O15	O	0.218450	0.323885	0.998650
O16	O	0.283250	0.440100	0.987100
N7	N	0.063950	0.078550	0.598100
N8	N	0.430550	0.176950	0.607550
C37	C	0.043900	0.020350	0.506700
H19	H	0.000100	0.006900	0.972050
C38	C	0.146600	0.001000	0.516850
C39	C	0.208550	0.022700	0.567700
C40	C	0.453850	0.240450	0.522050
H20	H	0.497550	0.254500	0.988900
C41	C	0.490150	0.198400	0.560850
H21	H	0.059550	0.184350	0.553950
C42	C	0.005750	0.059550	0.547500
H22	H	0.436050	0.073500	0.539550
C43	C	0.164250	0.061150	0.606850
H23	H	0.206650	0.075850	0.641300
C44	C	0.332250	0.197750	0.617300
H24	H	0.289650	0.182700	0.650350
C45	C	0.291300	0.239850	0.581300
H25	H	0.222300	0.253750	0.589550
C46	C	0.353950	0.261500	0.532300
C47	C	0.189000	0.455350	0.977500
C48	C	0.311000	0.306900	0.990750
Ni5	Ni	0.247400	0.876980	0.419715
O17	O	0.120650	0.674810	0.196450
O18	O	0.377450	0.566540	0.185100
O19	O	0.468450	0.676115	0.248650
O20	O	0.033250	0.559900	0.237100
N9	N	0.313950	0.921450	0.348100
N10	N	0.180550	0.823050	0.357550
C49	C	0.293900	0.979650	0.256700
H26	H	0.250100	0.993100	0.222050
C50	C	0.396600	0.999000	0.266850
C51	C	0.458550	0.977300	0.317700
C52	C	0.203850	0.759550	0.272050
C53	C	0.240150	0.801600	0.310850
H27	H	0.309550	0.815650	0.303950
C54	C	0.255750	0.940450	0.297500
H28	H	0.186050	0.926500	0.289550
C55	C	0.414250	0.938850	0.356850
H29	H	0.456650	0.924150	0.391300
C56	C	0.082250	0.802250	0.367300
H30	H	0.039650	0.817300	0.400350
C57	C	0.041300	0.760150	0.331300
C58	C	0.103950	0.738500	0.282300
C59	C	0.439000	0.544650	0.227500
C60	C	0.061000	0.693100	0.240750
Ni6	Ni	0.497400	0.623020	0.169715
O21	O	0.370650	0.825190	0.446450
O22	O	0.127450	0.933460	0.435100
O23	O	0.218450	0.823885	0.498650
O24	O	0.283250	0.940100	0.487100
N11	N	0.063950	0.578550	0.098100
N12	N	0.430550	0.676950	0.107550
C61	C	0.043900	0.520350	0.006700
H31	H	0.000100	0.506900	0.472050
C62	C	0.146600	0.501000	0.016850
C63	C	0.208550	0.522700	0.067700
H32	H	0.280100	0.511100	0.075250
C64	C	0.453850	0.740450	0.022050
C65	C	0.490150	0.698400	0.060850
H33	H	0.059550	0.684350	0.053950
C66	C	0.005750	0.559550	0.047500
H34	H	0.436050	0.573500	0.039550
C67	C	0.164250	0.561150	0.106850
H35	H	0.206650	0.575850	0.141300
C68	C	0.332250	0.697750	0.117300
H36	H	0.289650	0.682700	0.150350
C69	C	0.291300	0.739850	0.081300
H37	H	0.222300	0.753750	0.089550
C70	C	0.353950	0.761500	0.032300
C71	C	0.189000	0.955350	0.477500
C72	C	0.311000	0.806900	0.490750
Ni7	Ni	0.247400	0.876980	0.919715
O25	O	0.120650	0.674810	0.696450
O26	O	0.377450	0.566540	0.685100
O27	O	0.468450	0.676115	0.748650
O28	O	0.033250	0.559900	0.737100
N13	N	0.313950	0.921450	0.848100
N14	N	0.180550	0.823050	0.857550
C73	C	0.293900	0.979650	0.756700
C74	C	0.396600	0.999000	0.766850
C75	C	0.458550	0.977300	0.817700
C76	C	0.203850	0.759550	0.772050
H38	H	0.247550	0.745500	0.738900
C77	C	0.240150	0.801600	0.810850
H39	H	0.309550	0.815650	0.803950
C78	C	0.255750	0.940450	0.797500
H40	H	0.186050	0.926500	0.789550
C79	C	0.414250	0.938850	0.856850
H41	H	0.456650	0.924150	0.891300
C80	C	0.082250	0.802250	0.867300
H42	H	0.039650	0.817300	0.900350
C81	C	0.041300	0.760150	0.831300
C82	C	0.103950	0.738500	0.782300
C83	C	0.439000	0.544650	0.727500
C84	C	0.061000	0.693100	0.740750
Ni8	Ni	0.497400	0.623020	0.669715
O29	O	0.370650	0.825190	0.946450
O30	O	0.127450	0.933460	0.935100
O31	O	0.218450	0.823885	0.998650
O32	O	0.283250	0.940100	0.987100
N15	N	0.063950	0.578550	0.598100
N16	N	0.430550	0.676950	0.607550
C85	C	0.043900	0.520350	0.506700
C86	C	0.146600	0.501000	0.516850
C87	C	0.208550	0.522700	0.567700
C88	C	0.453850	0.740450	0.522050
C89	C	0.490150	0.698400	0.560850
H43	H	0.059550	0.684350	0.553950
C90	C	0.005750	0.559550	0.547500
H44	H	0.436050	0.573500	0.539550
C91	C	0.164250	0.561150	0.606850
H45	H	0.206650	0.575850	0.641300
C92	C	0.332250	0.697750	0.617300
H46	H	0.289650	0.682700	0.650350
C93	C	0.291300	0.739850	0.581300
H47	H	0.222300	0.753750	0.589550
C94	C	0.353950	0.761500	0.532300
C95	C	0.189000	0.955350	0.977500
C96	C	0.311000	0.806900	0.990750
Ni9	Ni	0.747400	0.376980	0.419715
O33	O	0.620650	0.174810	0.196450
O34	O	0.877450	0.066540	0.185100
O35	O	0.968450	0.176115	0.248650
O36	O	0.533250	0.059900	0.237100
N17	N	0.813950	0.421450	0.348100
N18	N	0.680550	0.323050	0.357550
C97	C	0.793900	0.479650	0.256700
C98	C	0.896600	0.499000	0.266850
C99	C	0.958550	0.477300	0.317700
C100	C	0.703850	0.259550	0.272050
C101	C	0.740150	0.301600	0.310850
H48	H	0.809550	0.315650	0.303950
C102	C	0.755750	0.440450	0.297500
H49	H	0.686050	0.426500	0.289550
C103	C	0.914250	0.438850	0.356850
H50	H	0.956650	0.424150	0.391300
C104	C	0.582250	0.302250	0.367300
H51	H	0.539650	0.317300	0.400350
C105	C	0.541300	0.260150	0.331300
H52	H	0.972300	0.246250	0.339550
C106	C	0.603950	0.238500	0.282300
C107	C	0.939000	0.044650	0.227500
C108	C	0.561000	0.193100	0.240750
Ni10	Ni	0.997400	0.123020	0.169715
O37	O	0.870650	0.325190	0.446450
O38	O	0.627450	0.433460	0.435100
O39	O	0.718450	0.323885	0.498650
O40	O	0.783250	0.440100	0.487100
N19	N	0.563950	0.078550	0.098100
N20	N	0.930550	0.176950	0.107550
C109	C	0.543900	0.020350	0.006700
H53	H	0.500100	0.006900	0.472050
C110	C	0.646600	0.001000	0.016850
C111	C	0.708550	0.022700	0.067700
H54	H	0.780100	0.011100	0.075250
C112	C	0.953850	0.240450	0.022050
C113	C	0.990150	0.198400	0.060850
H55	H	0.559550	0.184350	0.053950
C114	C	0.505750	0.059550	0.047500
H56	H	0.936050	0.073500	0.039550
C115	C	0.664250	0.061150	0.106850
H57	H	0.706650	0.075850	0.141300
C116	C	0.832250	0.197750	0.117300
H58	H	0.789650	0.182700	0.150350
C117	C	0.791300	0.239850	0.081300
H59	H	0.722300	0.253750	0.089550
C118	C	0.853950	0.261500	0.032300
C119	C	0.689000	0.455350	0.477500
C120	C	0.811000	0.306900	0.490750
Ni11	Ni	0.747400	0.376980	0.919715
O41	O	0.620650	0.174810	0.696450
O42	O	0.877450	0.066540	0.685100
O43	O	0.968450	0.176115	0.748650
O44	O	0.533250	0.059900	0.737100
N21	N	0.813950	0.421450	0.848100
N22	N	0.680550	0.323050	0.857550
C121	C	0.793900	0.479650	0.756700
C122	C	0.896600	0.499000	0.766850
C123	C	0.958550	0.477300	0.817700
C124	C	0.703850	0.259550	0.772050
H60	H	0.747550	0.245500	0.738900
C125	C	0.740150	0.301600	0.810850
H61	H	0.809550	0.315650	0.803950
C126	C	0.755750	0.440450	0.797500
H62	H	0.686050	0.426500	0.789550
C127	C	0.914250	0.438850	0.856850
H63	H	0.956650	0.424150	0.891300
C128	C	0.582250	0.302250	0.867300
H64	H	0.539650	0.317300	0.900350
C129	C	0.541300	0.260150	0.831300
H65	H	0.972300	0.246250	0.839550
C130	C	0.603950	0.238500	0.782300
C131	C	0.939000	0.044650	0.727500
C132	C	0.561000	0.193100	0.740750
Ni12	Ni	0.997400	0.123020	0.669715
O45	O	0.870650	0.325190	0.946450
O46	O	0.627450	0.433460	0.935100
O47	O	0.718450	0.323885	0.998650
O48	O	0.783250	0.440100	0.987100
N23	N	0.563950	0.078550	0.598100
N24	N	0.930550	0.176950	0.607550
C133	C	0.543900	0.020350	0.506700
C134	C	0.646600	0.001000	0.516850
C135	C	0.708550	0.022700	0.567700
C136	C	0.953850	0.240450	0.522050
C137	C	0.990150	0.198400	0.560850
H66	H	0.559550	0.184350	0.553950
C138	C	0.505750	0.059550	0.547500
H67	H	0.936050	0.073500	0.539550
C139	C	0.664250	0.061150	0.606850
H68	H	0.706650	0.075850	0.641300
C140	C	0.832250	0.197750	0.617300
H69	H	0.789650	0.182700	0.650350
C141	C	0.791300	0.239850	0.581300
H70	H	0.722300	0.253750	0.589550
C142	C	0.853950	0.261500	0.532300
C143	C	0.689000	0.455350	0.977500
C144	C	0.811000	0.306900	0.990750
Ni13	Ni	0.747400	0.876980	0.419715
O49	O	0.620650	0.674810	0.196450
O50	O	0.877450	0.566540	0.185100
O51	O	0.968450	0.676115	0.248650
O52	O	0.533250	0.559900	0.237100
N25	N	0.813950	0.921450	0.348100
N26	N	0.680550	0.823050	0.357550
C145	C	0.793900	0.979650	0.256700
H71	H	0.750100	0.993100	0.222050
C146	C	0.896600	0.999000	0.266850
C147	C	0.958550	0.977300	0.317700
C148	C	0.703850	0.759550	0.272050
H72	H	0.747550	0.745500	0.238900
C149	C	0.740150	0.801600	0.310850
H73	H	0.809550	0.815650	0.303950
C150	C	0.755750	0.940450	0.297500
H74	H	0.686050	0.926500	0.289550
C151	C	0.914250	0.938850	0.356850
H75	H	0.956650	0.924150	0.391300
C152	C	0.582250	0.802250	0.367300
H76	H	0.539650	0.817300	0.400350
C153	C	0.541300	0.760150	0.331300
H77	H	0.972300	0.746250	0.339550
C154	C	0.603950	0.738500	0.282300
C155	C	0.939000	0.544650	0.227500
C156	C	0.561000	0.693100	0.240750
Ni14	Ni	0.997400	0.623020	0.169715
O53	O	0.870650	0.825190	0.446450
O54	O	0.627450	0.933460	0.435100
O55	O	0.718450	0.823885	0.498650
O56	O	0.783250	0.940100	0.487100
N27	N	0.563950	0.578550	0.098100
N28	N	0.930550	0.676950	0.107550
C157	C	0.543900	0.520350	0.006700
C158	C	0.646600	0.501000	0.016850
C159	C	0.708550	0.522700	0.067700
C160	C	0.953850	0.740450	0.022050
C161	C	0.990150	0.698400	0.060850
H78	H	0.559550	0.684350	0.053950
C162	C	0.505750	0.559550	0.047500
H79	H	0.936050	0.573500	0.039550
C163	C	0.664250	0.561150	0.106850
H80	H	0.706650	0.575850	0.141300
C164	C	0.832250	0.697750	0.117300
H81	H	0.789650	0.682700	0.150350
C165	C	0.791300	0.739850	0.081300
H82	H	0.722300	0.753750	0.089550
C166	C	0.853950	0.761500	0.032300
C167	C	0.689000	0.955350	0.477500
C168	C	0.811000	0.806900	0.490750
Ni15	Ni	0.747400	0.876980	0.919715
O57	O	0.620650	0.674810	0.696450
O58	O	0.877450	0.566540	0.685100
O59	O	0.968450	0.676115	0.748650
O60	O	0.533250	0.559900	0.737100
N29	N	0.813950	0.921450	0.848100
N30	N	0.680550	0.823050	0.857550
C169	C	0.793900	0.979650	0.756700
H83	H	0.750100	0.993100	0.722050
C170	C	0.896600	0.999000	0.766850
C171	C	0.958550	0.977300	0.817700
H84	H	0.530100	0.988900	0.825250
C172	C	0.703850	0.759550	0.772050
H85	H	0.747550	0.745500	0.738900
C173	C	0.740150	0.801600	0.810850
H86	H	0.809550	0.815650	0.803950
C174	C	0.755750	0.940450	0.797500
H87	H	0.686050	0.926500	0.789550
C175	C	0.914250	0.938850	0.856850
H88	H	0.956650	0.924150	0.891300
C176	C	0.582250	0.802250	0.867300
H89	H	0.539650	0.817300	0.900350
C177	C	0.541300	0.760150	0.831300
C178	C	0.603950	0.738500	0.782300
C179	C	0.939000	0.544650	0.727500
C180	C	0.561000	0.693100	0.740750
Ni16	Ni	0.997400	0.623020	0.669715
O61	O	0.870650	0.825190	0.946450
O62	O	0.627450	0.933460	0.935100
O63	O	0.718450	0.823885	0.998650
O64	O	0.783250	0.940100	0.987100
N31	N	0.563950	0.578550	0.598100
N32	N	0.930550	0.676950	0.607550
C181	C	0.543900	0.520350	0.506700
H90	H	0.500100	0.506900	0.972050
C182	C	0.646600	0.501000	0.516850
C183	C	0.708550	0.522700	0.567700
H91	H	0.780100	0.511100	0.575250
C184	C	0.953850	0.740450	0.522050
C185	C	0.990150	0.698400	0.560850
H92	H	0.559550	0.684350	0.553950
C186	C	0.505750	0.559550	0.547500
H93	H	0.936050	0.573500	0.539550
C187	C	0.664250	0.561150	0.606850
H94	H	0.706650	0.575850	0.641300
C188	C	0.832250	0.697750	0.617300
H95	H	0.789650	0.682700	0.650350
C189	C	0.791300	0.739850	0.581300
H96	H	0.722300	0.753750	0.589550
C190	C	0.853950	0.761500	0.532300
C191	C	0.689000	0.955350	0.977500
C192	C	0.811000	0.806900	0.990750
O65	O	0.561675	0.494732	0.327412
C193	C	0.631616	0.476829	0.375595
C194	C	0.737866	0.505835	0.370144
H97	H	0.645417	0.433230	0.369964
H98	H	0.598286	0.485030	0.424300
H99	H	0.772819	0.497951	0.321867
H100	H	0.794444	0.491604	0.408769
H101	H	0.725911	0.549507	0.375947
O66	O	0.266280	0.238938	0.223903
C195	C	0.367532	0.256191	0.208466
C196	C	0.408964	0.223015	0.152417
H102	H	0.422773	0.251413	0.251212
H103	H	0.364796	0.298832	0.193461
H104	H	0.412797	0.180238	0.166533
H105	H	0.490367	0.236706	0.139784
H106	H	0.355093	0.227433	0.109055
O67	O	0.311675	0.005268	0.077412
C197	C	0.381618	0.023173	0.125593
C198	C	0.487866	-0.005835	0.120143
H107	H	0.348289	0.014975	0.174299
H108	H	0.395420	0.066771	0.119958
H109	H	0.475909	-0.049506	0.125951
H110	H	0.544446	0.008398	0.158767
H111	H	0.522818	0.002046	0.071865
O68	O	0.192261	0.260691	0.092166
C199	C	0.122619	0.243101	0.138805
C200	C	0.021030	0.276448	0.135473
H112	H	0.101501	0.200568	0.129825
H113	H	0.160159	0.247371	0.188081
H114	H	-0.018051	0.272535	0.086647
H115	H	-0.035287	0.262488	0.172870
H116	H	0.040331	0.319118	0.144628
O69	O	0.561675	0.494732	0.827412
C201	C	0.631618	0.476827	0.875593
C202	C	0.737866	0.505835	0.870143
H117	H	0.598289	0.485025	0.924299
H118	H	0.645420	0.433229	0.869958
H119	H	0.725909	0.549506	0.875951
H120	H	0.794446	0.491602	0.908767
H121	H	0.772818	0.497954	0.821865
O70	O	0.266280	0.238938	0.723903
C203	C	0.367532	0.256191	0.708466
C204	C	0.408964	0.223015	0.652417
H122	H	0.422773	0.251413	0.751212
H123	H	0.364796	0.298832	0.693461
H124	H	0.412797	0.180238	0.666533
H125	H	0.490367	0.236706	0.639784
H126	H	0.355093	0.227433	0.609055
O71	O	0.311675	0.005268	0.577412
C205	C	0.381618	0.023173	0.625593
C206	C	0.487866	-0.005835	0.620143
H127	H	0.348289	0.014975	0.674299
H128	H	0.395420	0.066771	0.619958
H129	H	0.475909	-0.049506	0.625951
H130	H	0.544446	0.008398	0.658767
H131	H	0.522818	0.002046	0.571865
O72	O	0.516280	0.261062	0.473903
C207	C	0.617532	0.243809	0.458466
C208	C	0.658964	0.276985	0.402417
H132	H	0.672773	0.248587	0.501212
H133	H	0.614796	0.201168	0.443461
H134	H	0.662797	0.319762	0.416533
H135	H	0.740367	0.263294	0.389784
H136	H	0.605093	0.272567	0.359055
O73	O	0.561675	0.994732	0.327412
C209	C	0.631616	0.976829	0.375595
C210	C	0.737866	1.005835	0.370144
H137	H	0.645417	0.933230	0.369964
H138	H	0.598286	0.985030	0.424300
H139	H	0.772819	0.997951	0.321867
H140	H	0.794444	0.991604	0.408769
H141	H	0.725911	1.049507	0.375947
O74	O	0.266281	0.738937	0.223904
C211	C	0.367535	0.756188	0.208469
C212	C	0.408964	0.723015	0.152418
H142	H	0.364803	0.798831	0.193466
H143	H	0.422773	0.751408	0.251214
H144	H	0.355095	0.727436	0.109055
H145	H	0.490370	0.736704	0.139786
H146	H	0.412791	0.680237	0.166531
O75	O	-0.018246	0.500314	-0.043639
C213	C	-0.121623	0.515882	-0.059297
C214	C	-0.162266	0.484280	-0.117979
H147	H	-0.123401	0.559132	-0.071494
H148	H	-0.174642	0.507998	-0.017649
H149	H	-0.110607	0.491801	-0.160286
H150	H	-0.245371	0.496626	-0.130802
H151	H	-0.161607	0.440908	-0.106696
O76	O	0.516280	0.761062	-0.026097
C215	C	0.617532	0.743809	-0.041534
C216	C	0.658964	0.776985	-0.097583
H152	H	0.672773	0.748587	0.001212
H153	H	0.614796	0.701168	-0.056539
H154	H	0.662797	0.819762	-0.083467
H155	H	0.740367	0.763294	-0.110216
H156	H	0.605093	0.772567	-0.140945
O77	O	0.231754	0.999686	0.706361
C217	C	0.128377	0.984118	0.690703
C218	C	0.087734	1.015720	0.632021
H157	H	0.126599	0.940868	0.678506
H158	H	0.075358	0.992002	0.732351
H159	H	0.139393	1.008199	0.589714
H160	H	0.004629	1.003374	0.619198
H161	H	0.088393	1.059092	0.643304
O78	O	-0.057739	0.739309	0.842166
C219	C	-0.127384	0.756901	0.888803
C220	C	-0.228971	0.723552	0.885473
H162	H	-0.089845	0.752634	0.938080
H163	H	-0.148503	0.799433	0.879819
H164	H	-0.209668	0.680883	0.894632
H165	H	-0.285290	0.737514	0.922867
H166	H	-0.268050	0.727461	0.836646
O79	O	0.311675	0.505268	0.577412
C221	C	0.381616	0.523171	0.625595
C222	C	0.487866	0.494165	0.620144
H167	H	0.395417	0.566770	0.619964
H168	H	0.348286	0.514970	0.674300
H169	H	0.522819	0.502049	0.571867
H170	H	0.544444	0.508396	0.658769
H171	H	0.475911	0.450493	0.625947
O80	O	0.516280	0.761062	0.473903
C223	C	0.617532	0.743809	0.458466
C224	C	0.658964	0.776985	0.402417
H172	H	0.672773	0.748587	0.501212
H173	H	0.614796	0.701168	0.443461
H174	H	0.662797	0.819762	0.416533
H175	H	0.740367	0.763294	0.389784
H176	H	0.605093	0.772567	0.359055
O81	O	0.731754	0.499686	0.206361
C225	C	0.628377	0.484118	0.190703
C226	C	0.587734	0.515720	0.132021
H177	H	0.626599	0.440868	0.178506
H178	H	0.575358	0.492002	0.232351
H179	H	0.639393	0.508199	0.089714
H180	H	0.504629	0.503374	0.119198
H181	H	0.588393	0.559092	0.143304
O82	O	0.766281	0.238937	0.223904
C227	C	0.867535	0.256188	0.208469
C228	C	0.908964	0.223015	0.152418
H182	H	0.864803	0.298831	0.193466
H183	H	0.922773	0.251408	0.251214
H184	H	0.855095	0.227436	0.109055
H185	H	0.990370	0.236704	0.139786
H186	H	0.912791	0.180237	0.166531
O83	O	0.481754	0.000314	-0.043639
C229	C	0.378377	0.015882	-0.059297
C230	C	0.337734	-0.015720	-0.117979
H187	H	0.376599	0.059132	-0.071494
H188	H	0.325358	0.007998	-0.017649
H189	H	0.389393	-0.008199	-0.160286
H190	H	0.254629	-0.003374	-0.130802
H191	H	0.338393	-0.059092	-0.106696
O84	O	1.016280	0.261062	-0.026097
C231	C	1.117532	0.243809	-0.041534
C232	C	1.158964	0.276985	-0.097583
H192	H	1.172773	0.248587	0.001212
H193	H	1.114796	0.201168	-0.056539
H194	H	1.162797	0.319762	-0.083467
H195	H	1.240367	0.263294	-0.110216
H196	H	1.105093	0.272567	-0.140945
O85	O	0.731754	0.499686	0.706361
C233	C	0.628377	0.484118	0.690703
C234	C	0.587734	0.515720	0.632021
H197	H	0.626599	0.440868	0.678506
H198	H	0.575358	0.492002	0.732351
H199	H	0.639393	0.508199	0.589714
H200	H	0.504629	0.503374	0.619198
H201	H	0.588393	0.559092	0.643304
O86	O	0.442261	0.239309	0.842166
C235	C	0.372616	0.256901	0.888803
C236	C	0.271029	0.223552	0.885473
H202	H	0.410155	0.252634	0.938080
H203	H	0.351497	0.299433	0.879819
H204	H	0.290332	0.180883	0.894632
H205	H	0.214710	0.237514	0.922867
H206	H	0.231950	0.227461	0.836646
O87	O	0.811675	0.005268	0.577412
C237	C	0.881618	0.023173	0.625593
C238	C	0.987866	-0.005835	0.620143
H207	H	0.848289	0.014975	0.674299
H208	H	0.895420	0.066771	0.619958
H209	H	0.975909	-0.049506	0.625951
H210	H	1.044446	0.008398	0.658767
H211	H	1.022818	0.002046	0.571865
O88	O	1.016280	0.261062	0.473903
C239	C	1.117532	0.243809	0.458466
C240	C	1.158964	0.276985	0.402417
H212	H	1.172773	0.248587	0.501212
H213	H	1.114796	0.201168	0.443461
H214	H	1.162797	0.319762	0.416533
H215	H	1.240367	0.263294	0.389784
H216	H	1.105093	0.272567	0.359055
O89	O	1.061675	0.994732	0.327412
C241	C	1.131616	0.976829	0.375595
C242	C	1.237866	1.005835	0.370144
H217	H	1.145417	0.933230	0.369964
H218	H	1.098286	0.985030	0.424300
H219	H	1.272819	0.997951	0.321867
H220	H	1.294444	0.991604	0.408769
H221	H	1.225911	1.049507	0.375947
O90	O	0.442261	0.739309	0.342166
C243	C	0.372616	0.756901	0.388803
C244	C	0.271029	0.723552	0.385473
H222	H	0.410155	0.752634	0.438080
H223	H	0.351497	0.799433	0.379819
H224	H	0.290332	0.680883	0.394632
H225	H	0.214710	0.737514	0.422867
H226	H	0.231950	0.727461	0.336646
O91	O	0.811675	0.505268	0.077412
C245	C	0.881616	0.523171	0.125595
C246	C	0.987866	0.494165	0.120144
H227	H	0.895417	0.566770	0.119964
H228	H	0.848286	0.514970	0.174300
H229	H	1.022819	0.502049	0.071867
H230	H	1.044444	0.508396	0.158769
H231	H	0.975911	0.450493	0.125947
O92	O	1.016280	0.761062	-0.026097
C247	C	1.117532	0.743809	-0.041534
C248	C	1.158964	0.776985	-0.097583
H232	H	1.172773	0.748587	0.001212
H233	H	1.114796	0.701168	-0.056539
H234	H	1.162797	0.819762	-0.083467
H235	H	1.240367	0.763294	-0.110216
H236	H	1.105093	0.772567	-0.140945
O93	O	1.061675	0.994732	0.827412
C249	C	1.131618	0.976827	0.875593
C250	C	1.237866	1.005835	0.870143
H237	H	1.098289	0.985025	0.924299
H238	H	1.145420	0.933229	0.869958
H239	H	1.225909	1.049506	0.875951
H240	H	1.294446	0.991602	0.908767
H241	H	1.272818	0.997954	0.821865
O94	O	0.442261	0.739309	0.842166
C251	C	0.372619	0.756899	0.888805
C252	C	0.271030	0.723552	0.885473
H242	H	0.351501	0.799432	0.879825
H243	H	0.410159	0.752629	0.938081
H244	H	0.231949	0.727465	0.836647
H245	H	0.214713	0.737512	0.922870
H246	H	0.290331	0.680882	0.894628
O95	O	0.481754	0.500314	0.456361
C253	C	0.378377	0.515882	0.440703
C254	C	0.337734	0.484280	0.382021
H247	H	0.376599	0.559132	0.428506
H248	H	0.325358	0.507998	0.482351
H249	H	0.389393	0.491801	0.339714
H250	H	0.254629	0.496626	0.369198
H251	H	0.338393	0.440908	0.393304
O96	O	1.016280	0.761062	0.473903
C255	C	1.117532	0.743809	0.458466
C256	C	1.158964	0.776985	0.402417
H252	H	1.172773	0.748587	0.501212
H253	H	1.114796	0.701168	0.443461
H254	H	1.162797	0.819762	0.416533
H255	H	1.240367	0.763294	0.389784
H256	H	1.105093	0.772567	0.359055

loop_
_geom_bond_atom_site_label_1
_geom_bond_atom_site_label_2
_geom_bond_distance
Ni1	N1	0.10740
Ni1	N2	0.10603
Ni1	O5	0.13634
Ni1	O6	0.13347
Ni1	O7	0.09944
Ni1	O8	0.09905
O1	C12	0.07652
O1	Ni10	0.13634
O2	C11	0.07788
O2	Ni2	0.13347
O3	Ni2	0.09944
O3	C108	0.09443
O4	C107	0.09596
O4	Ni10	0.09905
N1	C6	0.07943
N1	C7	0.10217
N2	C5	0.07870
N2	C8	0.10095
C1	H1	0.05745
C1	C2	0.10500
C1	C6	0.06824
C2	C3	0.08303
C2	C59	0.07369
C3	C7	0.07052
C3	O65	0.10504
H2	C99	0.07288
C4	C5	0.06776
C4	C10	0.10261
C4	O66	0.08149
C5	H3	0.07114
C6	H4	0.07153
C7	H5	0.05657
C8	H6	0.05598
C8	C9	0.06889
C9	C10	0.08243
C9	H52	0.07087
H7	C105	0.07087
C10	C12	0.07505
C11	C50	0.07369
C11	O36	0.09596
C12	O35	0.09443
Ni2	N4	0.10603
Ni2	O33	0.13634
Ni2	O36	0.09905
Ni2	N19	0.10740
O5	C24	0.07652
O6	C23	0.07788
O7	C24	0.09443
O8	C23	0.09596
N3	C18	0.07943
N3	C19	0.10217
N3	Ni10	0.10740
N4	C17	0.07870
N4	C20	0.10095
C13	C14	0.10500
C13	C18	0.06824
C13	H19	0.05745
H8	C37	0.05745
C14	C15	0.08303
C14	C95	0.07369
C15	C19	0.07052
C15	O67	0.10504
C16	C17	0.06776
C16	C22	0.10261
C16	H20	0.05662
C17	H55	0.07114
H9	C113	0.07114
C18	H56	0.07153
H10	C114	0.07153
C19	H11	0.05657
C20	H12	0.05598
C20	C21	0.06889
C21	C22	0.08243
C21	O68	0.10179
C22	C48	0.07505
C23	C86	0.07369
C24	C46	0.07505
Ni3	N5	0.10740
Ni3	N6	0.10603
Ni3	O13	0.13634
Ni3	O14	0.13347
Ni3	O15	0.09944
Ni3	O16	0.09905
O9	C36	0.07652
O9	Ni12	0.13634
O10	C35	0.07788
O10	Ni4	0.13347
O11	Ni4	0.09944
O11	C132	0.09443
O12	C131	0.09596
O12	Ni12	0.09905
N5	C30	0.07943
N5	C31	0.10217
N6	C29	0.07870
N6	C32	0.10095
C25	H13	0.05745
C25	C26	0.10500
C25	C30	0.06824
C26	C27	0.08303
C26	C83	0.07369
C27	C31	0.07052
C27	O69	0.10504
H14	C123	0.07288
C28	C29	0.06776
C28	C34	0.10261
C28	O70	0.08149
C29	H15	0.07114
C30	H16	0.07153
C31	H17	0.05657
C32	H18	0.05598
C32	C33	0.06889
C33	C34	0.08243
C33	H65	0.07087
C34	C36	0.07505
C35	C74	0.07369
C35	O44	0.09596
C36	O43	0.09443
Ni4	N8	0.10603
Ni4	O41	0.13634
Ni4	O44	0.09905
Ni4	N23	0.10740
O13	C48	0.07652
O14	C47	0.07788
O15	C48	0.09443
O16	C47	0.09596
N7	C42	0.07943
N7	C43	0.10217
N7	Ni12	0.10740
N8	C41	0.07870
N8	C44	0.10095
C37	C38	0.10500
C37	C42	0.06824
C38	C39	0.08303
C38	C71	0.07369
C39	C43	0.07052
C39	O71	0.10504
C40	C41	0.06776
C40	C46	0.10261
C40	O72	0.08149
C41	H66	0.07114
H21	C137	0.07114
C42	H67	0.07153
H22	C138	0.07153
C43	H23	0.05657
C44	H24	0.05598
C44	C45	0.06889
C45	H25	0.07087
C45	C46	0.08243
C47	C62	0.07369
Ni5	N9	0.10740
Ni5	N10	0.10603
Ni5	O21	0.13634
Ni5	O22	0.13347
Ni5	O23	0.09944
Ni5	O24	0.09905
O17	C60	0.07652
O17	Ni14	0.13634
O18	C59	0.07788
O18	Ni6	0.13347
O19	Ni6	0.09944
O19	C156	0.09443
O20	C155	0.09596
O20	Ni14	0.09905
N9	C54	0.07943
N9	C55	0.10217
N10	C53	0.07870
N10	C56	0.10095
C49	H26	0.05745
C49	C50	0.10500
C49	C54	0.06824
C50	C51	0.08303
C51	C55	0.07052
C51	O73	0.10504
C52	C53	0.06776
C52	C58	0.10261
C52	O74	0.08149
C53	H27	0.07114
C54	H28	0.07153
C55	H29	0.05657
C56	H30	0.05598
C56	C57	0.06889
C57	C58	0.08243
C57	H77	0.07087
C58	C60	0.07505
C59	O52	0.09596
C60	O51	0.09443
Ni6	N12	0.10603
Ni6	O49	0.13634
Ni6	O52	0.09905
Ni6	N27	0.10740
O21	C72	0.07652
O22	C71	0.07788
O23	C72	0.09443
O24	C71	0.09596
N11	C66	0.07943
N11	C67	0.10217
N11	Ni14	0.10740
N12	C65	0.07870
N12	C68	0.10095
C61	C62	0.10500
C61	C66	0.06824
C61	O75	0.08245
H31	C85	0.05745
C62	C63	0.08303
C63	H32	0.07288
C63	C67	0.07052
C64	C65	0.06776
C64	C70	0.10261
C64	O76	0.08149
C65	H78	0.07114
H33	C161	0.07114
C66	H79	0.07153
H34	C162	0.07153
C67	H35	0.05657
C68	H36	0.05598
C68	C69	0.06889
C69	H37	0.07087
C69	C70	0.08243
C70	C96	0.07505
C72	C94	0.07505
Ni7	N13	0.10740
Ni7	N14	0.10603
Ni7	O29	0.13634
Ni7	O30	0.13347
Ni7	O31	0.09944
Ni7	O32	0.09905
O25	C84	0.07652
O25	Ni16	0.13634
O26	C83	0.07788
O26	Ni8	0.13347
O27	Ni8	0.09944
O27	C180	0.09443
O28	C179	0.09596
O28	Ni16	0.09905
N13	C78	0.07943
N13	C79	0.10217
N14	C77	0.07870
N14	C80	0.10095
C73	C74	0.10500
C73	C78	0.06824
C73	O77	0.08245
C74	C75	0.08303
C75	C79	0.07052
C75	H84	0.07288
C76	H38	0.05662
C76	C77	0.06776
C76	C82	0.10261
C77	H39	0.07114
C78	H40	0.07153
C79	H41	0.05657
C80	H42	0.05598
C80	C81	0.06889
C81	C82	0.08243
C81	O78	0.10179
C82	C84	0.07505
C83	O60	0.09596
C84	O59	0.09443
Ni8	N16	0.10603
Ni8	O57	0.13634
Ni8	O60	0.09905
Ni8	N31	0.10740
O29	C96	0.07652
O30	C95	0.07788
O31	C96	0.09443
O32	C95	0.09596
N15	C90	0.07943
N15	C91	0.10217
N15	Ni16	0.10740
N16	C89	0.07870
N16	C92	0.10095
C85	C86	0.10500
C85	C90	0.06824
C86	C87	0.08303
C87	C91	0.07052
C87	O79	0.10504
C88	C89	0.06776
C88	C94	0.10261
C88	O80	0.08149
C89	H92	0.07114
H43	C185	0.07114
C90	H93	0.07153
H44	C186	0.07153
C91	H45	0.05657
C92	H46	0.05598
C92	C93	0.06889
C93	H47	0.07087
C93	C94	0.08243
Ni9	N17	0.10740
Ni9	N18	0.10603
Ni9	O37	0.13634
Ni9	O38	0.13347
Ni9	O39	0.09944
Ni9	O40	0.09905
O33	C108	0.07652
O34	C107	0.07788
O34	Ni10	0.13347
O35	Ni10	0.09944
N17	C102	0.07943
N17	C103	0.10217
N18	C101	0.07870
N18	C104	0.10095
C97	C98	0.10500
C97	C102	0.06824
C97	O81	0.08245
C98	C99	0.08303
C98	C155	0.07369
C99	C103	0.07052
C100	C101	0.06776
C100	C106	0.10261
C100	O82	0.08149
C101	H48	0.07114
C102	H49	0.07153
C103	H50	0.05657
C104	H51	0.05598
C104	C105	0.06889
C105	C106	0.08243
C106	C108	0.07505
C107	C146	0.07369
Ni10	N20	0.10603
O37	C120	0.07652
O38	C119	0.07788
O39	C120	0.09443
O40	C119	0.09596
N19	C114	0.07943
N19	C115	0.10217
N20	C113	0.07870
N20	C116	0.10095
C109	C110	0.10500
C109	C114	0.06824
C109	O83	0.08245
H53	C133	0.05745
C110	C111	0.08303
C110	C191	0.07369
C111	H54	0.07288
C111	C115	0.07052
C112	C113	0.06776
C112	C118	0.10261
C112	O84	0.08149
C115	H57	0.05657
C116	H58	0.05598
C116	C117	0.06889
C117	H59	0.07087
C117	C118	0.08243
C118	C144	0.07505
C119	C182	0.07369
C120	C142	0.07505
Ni11	N21	0.10740
Ni11	N22	0.10603
Ni11	O45	0.13634
Ni11	O46	0.13347
Ni11	O47	0.09944
Ni11	O48	0.09905
O41	C132	0.07652
O42	C131	0.07788
O42	Ni12	0.13347
O43	Ni12	0.09944
N21	C126	0.07943
N21	C127	0.10217
N22	C125	0.07870
N22	C128	0.10095
C121	C122	0.10500
C121	C126	0.06824
C121	O85	0.08245
C122	C123	0.08303
C122	C179	0.07369
C123	C127	0.07052
C124	H60	0.05662
C124	C125	0.06776
C124	C130	0.10261
C125	H61	0.07114
C126	H62	0.07153
C127	H63	0.05657
C128	H64	0.05598
C128	C129	0.06889
C129	C130	0.08243
C129	O86	0.10179
C130	C132	0.07505
C131	C170	0.07369
Ni12	N24	0.10603
O45	C144	0.07652
O46	C143	0.07788
O47	C144	0.09443
O48	C143	0.09596
N23	C138	0.07943
N23	C139	0.10217
N24	C137	0.07870
N24	C140	0.10095
C133	C134	0.10500
C133	C138	0.06824
C134	C135	0.08303
C134	C167	0.07369
C135	C139	0.07052
C135	O87	0.10504
C136	C137	0.06776
C136	C142	0.10261
C136	O88	0.08149
C139	H68	0.05657
C140	H69	0.05598
C140	C141	0.06889
C141	H70	0.07087
C141	C142	0.08243
C143	C158	0.07369
Ni13	N25	0.10740
Ni13	N26	0.10603
Ni13	O53	0.13634
Ni13	O54	0.13347
Ni13	O55	0.09944
Ni13	O56	0.09905
O49	C156	0.07652
O50	C155	0.07788
O50	Ni14	0.13347
O51	Ni14	0.09944
N25	C150	0.07943
N25	C151	0.10217
N26	C149	0.07870
N26	C152	0.10095
C145	H71	0.05745
C145	C146	0.10500
C145	C150	0.06824
C146	C147	0.08303
C147	C151	0.07052
C147	O89	0.10504
C148	H72	0.05662
C148	C149	0.06776
C148	C154	0.10261
C149	H73	0.07114
C150	H74	0.07153
C151	H75	0.05657
C152	H76	0.05598
C152	C153	0.06889
C153	C154	0.08243
C153	O90	0.10179
C154	C156	0.07505
Ni14	N28	0.10603
O53	C168	0.07652
O54	C167	0.07788
O55	C168	0.09443
O56	C167	0.09596
N27	C162	0.07943
N27	C163	0.10217
N28	C161	0.07870
N28	C164	0.10095
C157	C158	0.10500
C157	C162	0.06824
C157	H90	0.05745
C158	C159	0.08303
C159	C163	0.07052
C159	O91	0.10504
C160	C161	0.06776
C160	C166	0.10261
C160	O92	0.08149
C163	H80	0.05657
C164	H81	0.05598
C164	C165	0.06889
C165	H82	0.07087
C165	C166	0.08243
C166	C192	0.07505
C168	C190	0.07505
Ni15	N29	0.10740
Ni15	N30	0.10603
Ni15	O61	0.13634
Ni15	O62	0.13347
Ni15	O63	0.09944
Ni15	O64	0.09905
O57	C180	0.07652
O58	C179	0.07788
O58	Ni16	0.13347
O59	Ni16	0.09944
N29	C174	0.07943
N29	C175	0.10217
N30	C173	0.07870
N30	C176	0.10095
C169	H83	0.05745
C169	C170	0.10500
C169	C174	0.06824
C170	C171	0.08303
C171	C175	0.07052
C171	O93	0.10504
C172	H85	0.05662
C172	C173	0.06776
C172	C178	0.10261
C173	H86	0.07114
C174	H87	0.07153
C175	H88	0.05657
C176	H89	0.05598
C176	C177	0.06889
C177	C178	0.08243
C177	O94	0.10179
C178	C180	0.07505
Ni16	N32	0.10603
O61	C192	0.07652
O62	C191	0.07788
O63	C192	0.09443
O64	C191	0.09596
N31	C186	0.07943
N31	C187	0.10217
N32	C185	0.07870
N32	C188	0.10095
C181	C182	0.10500
C181	C186	0.06824
C181	O95	0.08245
C182	C183	0.08303
C183	H91	0.07288
C183	C187	0.07052
C184	C185	0.06776
C184	C190	0.10261
C184	O96	0.08149
C187	H94	0.05657
C188	H95	0.05598
C188	C189	0.06889
C189	H96	0.07087
C189	C190	0.08243
O65	C193	0.08680
C193	C194	0.11027
C193	H97	0.04608
C193	H98	0.05958
C194	H99	0.06012
C194	H100	0.06997
C194	H101	0.04565
O66	C195	0.10386
C195	C196	0.07719
C195	H102	0.07001
C195	H103	0.04529
C196	H104	0.04521
C196	H105	0.08351
C196	H106	0.06930
O67	C197	0.08680
C197	C198	0.11027
C197	H107	0.05958
C197	H108	0.04608
C198	H109	0.04565
C198	H110	0.06997
C198	H111	0.06012
O68	C199	0.08564
C199	C200	0.10697
C199	H112	0.04833
C199	H113	0.06209
C200	H114	0.06266
C200	H115	0.06903
C200	H116	0.04772
O69	C201	0.08680
C201	C202	0.11027
C201	H117	0.05958
C201	H118	0.04608
C202	H119	0.04565
C202	H120	0.06997
C202	H121	0.06012
O70	C203	0.10386
C203	C204	0.07719
C203	H122	0.07001
C203	H123	0.04529
C204	H124	0.04521
C204	H125	0.08351
C204	H126	0.06930
O71	C205	0.08680
C205	C206	0.11027
C205	H127	0.05958
C205	H128	0.04608
C206	H129	0.04565
C206	H130	0.06997
C206	H131	0.06012
O72	C207	0.10386
C207	C208	0.07719
C207	H132	0.07001
C207	H133	0.04529
C208	H134	0.04521
C208	H135	0.08351
C208	H136	0.06930
O73	C209	0.08680
C209	C210	0.11027
C209	H137	0.04608
C209	H138	0.05958
C210	H139	0.06012
C210	H140	0.06997
C210	H141	0.04565
O74	C211	0.10387
C211	C212	0.07719
C211	H142	0.04529
C211	H143	0.07001
C212	H144	0.06929
C212	H145	0.08351
C212	H146	0.04521
O75	C213	0.10571
C213	C214	0.07807
C213	H147	0.04497
C213	H148	0.06788
C214	H149	0.06719
C214	H150	0.08499
C214	H151	0.04482
O76	C215	0.10386
C215	C216	0.07719
C215	H152	0.07001
C215	H153	0.04529
C216	H154	0.04521
C216	H155	0.08351
C216	H156	0.06930
O77	C217	0.10571
C217	C218	0.07807
C217	H157	0.04497
C217	H158	0.06788
C218	H159	0.06719
C218	H160	0.08499
C218	H161	0.04482
O78	C219	0.08564
C219	C220	0.10697
C219	H162	0.06209
C219	H163	0.04833
C220	H164	0.04772
C220	H165	0.06903
C220	H166	0.06266
O79	C221	0.08680
C221	C222	0.11027
C221	H167	0.04608
C221	H168	0.05958
C222	H169	0.06012
C222	H170	0.06997
C222	H171	0.04565
O80	C223	0.10386
C223	C224	0.07719
C223	H172	0.07001
C223	H173	0.04529
C224	H174	0.04521
C224	H175	0.08351
C224	H176	0.06930
O81	C225	0.10571
C225	C226	0.07807
C225	H177	0.04497
C225	H178	0.06788
C226	H179	0.06719
C226	H180	0.08499
C226	H181	0.04482
O82	C227	0.10387
C227	C228	0.07719
C227	H182	0.04529
C227	H183	0.07001
C228	H184	0.06929
C228	H185	0.08351
C228	H186	0.04521
O83	C229	0.10571
C229	C230	0.07807
C229	H187	0.04497
C229	H188	0.06788
C230	H189	0.06719
C230	H190	0.08499
C230	H191	0.04482
O84	C231	0.10386
C231	C232	0.07719
C231	H192	0.07001
C231	H193	0.04529
C232	H194	0.04521
C232	H195	0.08351
C232	H196	0.06930
O85	C233	0.10571
C233	C234	0.07807
C233	H197	0.04497
C233	H198	0.06788
C234	H199	0.06719
C234	H200	0.08499
C234	H201	0.04482
O86	C235	0.08564
C235	C236	0.10697
C235	H202	0.06209
C235	H203	0.04833
C236	H204	0.04772
C236	H205	0.06903
C236	H206	0.06266
O87	C237	0.08680
C237	C238	0.11027
C237	H207	0.05958
C237	H208	0.04608
C238	H209	0.04565
C238	H210	0.06997
C238	H211	0.06012
O88	C239	0.10386
C239	C240	0.07719
C239	H212	0.07001
C239	H213	0.04529
C240	H214	0.04521
C240	H215	0.08351
C240	H216	0.06930
O89	C241	0.08680
C241	C242	0.11027
C241	H217	0.04608
C241	H218	0.05958
C242	H219	0.06012
C242	H220	0.06997
C242	H221	0.04565
O90	C243	0.08564
C243	C244	0.10697
C243	H222	0.06209
C243	H223	0.04833
C244	H224	0.04772
C244	H225	0.06903
C244	H226	0.06266
O91	C245	0.08680
C245	C246	0.11027
C245	H227	0.04608
C245	H228	0.05958
C246	H229	0.06012
C246	H230	0.06997
C246	H231	0.04565
O92	C247	0.10386
C247	C248	0.07719
C247	H232	0.07001
C247	H233	0.04529
C248	H234	0.04521
C248	H235	0.08351
C248	H236	0.06930
O93	C249	0.08680
C249	C250	0.11027
C249	H237	0.05958
C249	H238	0.04608
C250	H239	0.04565
C250	H240	0.06997
C250	H241	0.06012
O94	C251	0.08564
C251	C252	0.10697
C251	H242	0.04833
C251	H243	0.06209
C252	H244	0.06266
C252	H245	0.06903
C252	H246	0.04772
O95	C253	0.10571
C253	C254	0.07807
C253	H247	0.04497
C253	H248	0.06788
C254	H249	0.06719
C254	H250	0.08499
C254	H251	0.04482
O96	C255	0.10386
C255	C256	0.07719
C255	H252	0.07001
C255	H253	0.04529
C256	H254	0.04521
C256	H255	0.08351
C256	H256	0.06930
