data_NiPyC2_NiPyC2_aligned_CH2-CH2-CH3_NiPyC2_aligned_CH2-CH2-CH3_NiPyC2_aligned_CH2-CH2-CH3_NiPyC2_aligned_CH2-CH2-CH3_NiPyC2_aligned_CH2-CH2-CH3_NiPyC2_aligned_CH2-CH2-CH3_NiPyC2_aligned_CH2-CH2-CH3_NiPyC2_aligned_CH2-CH2-CH3_NiPyC2_aligned_CH2-CH2-CH3_NiPyC2_aligned_CH2-CH2-CH3_NiPyC2_aligned_CH2-CH2-CH3_NiPyC2_aligned_CH2-CH2-CH3_NiPyC2_aligned_CH2-CH2-CH3_NiPyC2_aligned_CH2-CH2-CH3_NiPyC2_aligned_CH2-CH2-CH3_NiPyC2_aligned_CH2-CH2-CH3_NiPyC2_aligned_CH2-CH2-CH3_NiPyC2_aligned_CH2-CH2-CH3_NiPyC2_aligned_CH2-CH2-CH3_NiPyC2_aligned_CH2-CH2-CH3_NiPyC2_aligned_CH2-CH2-CH3_NiPyC2_aligned_CH2-CH2-CH3_NiPyC2_aligned_CH2-CH2-CH3_NiPyC2_aligned_CH2-CH2-CH3_NiPyC2_aligned_CH2-CH2-CH3_NiPyC2_aligned_CH2-CH2-CH3_NiPyC2_aligned_CH2-CH2-CH3_NiPyC2_aligned_CH2-CH2-CH3_NiPyC2_aligned_CH2-CH2-CH3_NiPyC2_aligned_CH2-CH2-CH3_NiPyC2_aligned_CH2-CH2-CH3_NiPyC2_aligned_CH2-CH2-CH3_PM
_symmetry_space_group_name_H-M	'P1'
_cell_length_a	12.505600
_cell_length_b	25.046800
_cell_length_c	20.553600
_cell_angle_alpha	90.000000
_cell_angle_beta	91.269000
_cell_angle_gamma	90.000000
_symmetry_Int_Tables_number 1

loop_
_symmetry_equiv_pos_as_xyz
'x,y,z'

loop_
_atom_site_label
_atom_site_type_symbol
_atom_site_fract_x
_atom_site_fract_y
_atom_site_fract_z
Ni1	Ni	0.247400	0.376980	0.419715
O1	O	0.120650	0.174810	0.196450
O2	O	0.377450	0.066540	0.185100
O3	O	0.468450	0.176115	0.248650
O4	O	0.033250	0.059900	0.237100
N1	N	0.313950	0.421450	0.348100
N2	N	0.180550	0.323050	0.357550
C1	C	0.293900	0.479650	0.256700
H1	H	0.250100	0.493100	0.222050
C2	C	0.396600	0.499000	0.266850
C3	C	0.458550	0.477300	0.317700
H2	H	0.030100	0.488900	0.325250
C4	C	0.203850	0.259550	0.272050
H3	H	0.247550	0.245500	0.238900
C5	C	0.240150	0.301600	0.310850
C6	C	0.255750	0.440450	0.297500
H4	H	0.186050	0.426500	0.289550
C7	C	0.414250	0.438850	0.356850
C8	C	0.082250	0.302250	0.367300
H5	H	0.039650	0.317300	0.400350
C9	C	0.041300	0.260150	0.331300
H6	H	0.472300	0.246250	0.339550
C10	C	0.103950	0.238500	0.282300
C11	C	0.439000	0.044650	0.227500
C12	C	0.061000	0.193100	0.240750
Ni2	Ni	0.497400	0.123020	0.169715
O5	O	0.370650	0.325190	0.446450
O6	O	0.127450	0.433460	0.435100
O7	O	0.218450	0.323885	0.498650
O8	O	0.283250	0.440100	0.487100
N3	N	0.063950	0.078550	0.098100
N4	N	0.430550	0.176950	0.107550
C13	C	0.043900	0.020350	0.006700
H7	H	0.000100	0.006900	0.472050
C14	C	0.146600	0.001000	0.016850
C15	C	0.208550	0.022700	0.067700
H8	H	0.280100	0.011100	0.075250
C16	C	0.453850	0.240450	0.022050
H9	H	0.497550	0.254500	0.488900
C17	C	0.490150	0.198400	0.060850
H10	H	0.059550	0.184350	0.053950
C18	C	0.005750	0.059550	0.047500
C19	C	0.164250	0.061150	0.106850
C20	C	0.332250	0.197750	0.117300
H11	H	0.289650	0.182700	0.150350
C21	C	0.291300	0.239850	0.081300
H12	H	0.222300	0.253750	0.089550
C22	C	0.353950	0.261500	0.032300
C23	C	0.189000	0.455350	0.477500
C24	C	0.311000	0.306900	0.490750
Ni3	Ni	0.247400	0.376980	0.919715
O9	O	0.120650	0.174810	0.696450
O10	O	0.377450	0.066540	0.685100
O11	O	0.468450	0.176115	0.748650
O12	O	0.033250	0.059900	0.737100
N5	N	0.313950	0.421450	0.848100
N6	N	0.180550	0.323050	0.857550
C25	C	0.293900	0.479650	0.756700
H13	H	0.250100	0.493100	0.722050
C26	C	0.396600	0.499000	0.766850
C27	C	0.458550	0.477300	0.817700
H14	H	0.030100	0.488900	0.825250
C28	C	0.203850	0.259550	0.772050
H15	H	0.247550	0.245500	0.738900
C29	C	0.240150	0.301600	0.810850
H16	H	0.309550	0.315650	0.803950
C30	C	0.255750	0.440450	0.797500
H17	H	0.186050	0.426500	0.789550
C31	C	0.414250	0.438850	0.856850
C32	C	0.082250	0.302250	0.867300
C33	C	0.041300	0.260150	0.831300
H18	H	0.472300	0.246250	0.839550
C34	C	0.103950	0.238500	0.782300
C35	C	0.439000	0.044650	0.727500
C36	C	0.061000	0.193100	0.740750
Ni4	Ni	0.497400	0.123020	0.669715
O13	O	0.370650	0.325190	0.946450
O14	O	0.127450	0.433460	0.935100
O15	O	0.218450	0.323885	0.998650
O16	O	0.283250	0.440100	0.987100
N7	N	0.063950	0.078550	0.598100
N8	N	0.430550	0.176950	0.607550
C37	C	0.043900	0.020350	0.506700
H19	H	0.000100	0.006900	0.972050
C38	C	0.146600	0.001000	0.516850
C39	C	0.208550	0.022700	0.567700
H20	H	0.280100	0.011100	0.575250
C40	C	0.453850	0.240450	0.522050
H21	H	0.497550	0.254500	0.988900
C41	C	0.490150	0.198400	0.560850
C42	C	0.005750	0.059550	0.547500
C43	C	0.164250	0.061150	0.606850
C44	C	0.332250	0.197750	0.617300
C45	C	0.291300	0.239850	0.581300
H22	H	0.222300	0.253750	0.589550
C46	C	0.353950	0.261500	0.532300
C47	C	0.189000	0.455350	0.977500
C48	C	0.311000	0.306900	0.990750
Ni5	Ni	0.247400	0.876980	0.419715
O17	O	0.120650	0.674810	0.196450
O18	O	0.377450	0.566540	0.185100
O19	O	0.468450	0.676115	0.248650
O20	O	0.033250	0.559900	0.237100
N9	N	0.313950	0.921450	0.348100
N10	N	0.180550	0.823050	0.357550
C49	C	0.293900	0.979650	0.256700
H23	H	0.250100	0.993100	0.222050
C50	C	0.396600	0.999000	0.266850
C51	C	0.458550	0.977300	0.317700
H24	H	0.030100	0.988900	0.325250
C52	C	0.203850	0.759550	0.272050
H25	H	0.247550	0.745500	0.238900
C53	C	0.240150	0.801600	0.310850
H26	H	0.309550	0.815650	0.303950
C54	C	0.255750	0.940450	0.297500
H27	H	0.186050	0.926500	0.289550
C55	C	0.414250	0.938850	0.356850
C56	C	0.082250	0.802250	0.367300
C57	C	0.041300	0.760150	0.331300
H28	H	0.472300	0.746250	0.339550
C58	C	0.103950	0.738500	0.282300
C59	C	0.439000	0.544650	0.227500
C60	C	0.061000	0.693100	0.240750
Ni6	Ni	0.497400	0.623020	0.169715
O21	O	0.370650	0.825190	0.446450
O22	O	0.127450	0.933460	0.435100
O23	O	0.218450	0.823885	0.498650
O24	O	0.283250	0.940100	0.487100
N11	N	0.063950	0.578550	0.098100
N12	N	0.430550	0.676950	0.107550
C61	C	0.043900	0.520350	0.006700
H29	H	0.000100	0.506900	0.472050
C62	C	0.146600	0.501000	0.016850
C63	C	0.208550	0.522700	0.067700
H30	H	0.280100	0.511100	0.075250
C64	C	0.453850	0.740450	0.022050
H31	H	0.497550	0.754500	0.488900
C65	C	0.490150	0.698400	0.060850
H32	H	0.059550	0.684350	0.053950
C66	C	0.005750	0.559550	0.047500
C67	C	0.164250	0.561150	0.106850
C68	C	0.332250	0.697750	0.117300
H33	H	0.289650	0.682700	0.150350
C69	C	0.291300	0.739850	0.081300
H34	H	0.222300	0.753750	0.089550
C70	C	0.353950	0.761500	0.032300
C71	C	0.189000	0.955350	0.477500
C72	C	0.311000	0.806900	0.490750
Ni7	Ni	0.247400	0.876980	0.919715
O25	O	0.120650	0.674810	0.696450
O26	O	0.377450	0.566540	0.685100
O27	O	0.468450	0.676115	0.748650
O28	O	0.033250	0.559900	0.737100
N13	N	0.313950	0.921450	0.848100
N14	N	0.180550	0.823050	0.857550
C73	C	0.293900	0.979650	0.756700
H35	H	0.250100	0.993100	0.722050
C74	C	0.396600	0.999000	0.766850
C75	C	0.458550	0.977300	0.817700
H36	H	0.030100	0.988900	0.825250
C76	C	0.203850	0.759550	0.772050
H37	H	0.247550	0.745500	0.738900
C77	C	0.240150	0.801600	0.810850
C78	C	0.255750	0.940450	0.797500
H38	H	0.186050	0.926500	0.789550
C79	C	0.414250	0.938850	0.856850
C80	C	0.082250	0.802250	0.867300
H39	H	0.039650	0.817300	0.900350
C81	C	0.041300	0.760150	0.831300
H40	H	0.472300	0.746250	0.839550
C82	C	0.103950	0.738500	0.782300
C83	C	0.439000	0.544650	0.727500
C84	C	0.061000	0.693100	0.740750
Ni8	Ni	0.497400	0.623020	0.669715
O29	O	0.370650	0.825190	0.946450
O30	O	0.127450	0.933460	0.935100
O31	O	0.218450	0.823885	0.998650
O32	O	0.283250	0.940100	0.987100
N15	N	0.063950	0.578550	0.598100
N16	N	0.430550	0.676950	0.607550
C85	C	0.043900	0.520350	0.506700
H41	H	0.000100	0.506900	0.972050
C86	C	0.146600	0.501000	0.516850
C87	C	0.208550	0.522700	0.567700
H42	H	0.280100	0.511100	0.575250
C88	C	0.453850	0.740450	0.522050
H43	H	0.497550	0.754500	0.988900
C89	C	0.490150	0.698400	0.560850
C90	C	0.005750	0.559550	0.547500
C91	C	0.164250	0.561150	0.606850
H44	H	0.206650	0.575850	0.641300
C92	C	0.332250	0.697750	0.617300
H45	H	0.289650	0.682700	0.650350
C93	C	0.291300	0.739850	0.581300
H46	H	0.222300	0.753750	0.589550
C94	C	0.353950	0.761500	0.532300
C95	C	0.189000	0.955350	0.977500
C96	C	0.311000	0.806900	0.990750
Ni9	Ni	0.747400	0.376980	0.419715
O33	O	0.620650	0.174810	0.196450
O34	O	0.877450	0.066540	0.185100
O35	O	0.968450	0.176115	0.248650
O36	O	0.533250	0.059900	0.237100
N17	N	0.813950	0.421450	0.348100
N18	N	0.680550	0.323050	0.357550
C97	C	0.793900	0.479650	0.256700
H47	H	0.750100	0.493100	0.222050
C98	C	0.896600	0.499000	0.266850
C99	C	0.958550	0.477300	0.317700
H48	H	0.530100	0.488900	0.325250
C100	C	0.703850	0.259550	0.272050
H49	H	0.747550	0.245500	0.238900
C101	C	0.740150	0.301600	0.310850
H50	H	0.809550	0.315650	0.303950
C102	C	0.755750	0.440450	0.297500
C103	C	0.914250	0.438850	0.356850
H51	H	0.956650	0.424150	0.391300
C104	C	0.582250	0.302250	0.367300
C105	C	0.541300	0.260150	0.331300
H52	H	0.972300	0.246250	0.339550
C106	C	0.603950	0.238500	0.282300
C107	C	0.939000	0.044650	0.227500
C108	C	0.561000	0.193100	0.240750
Ni10	Ni	0.997400	0.123020	0.169715
O37	O	0.870650	0.325190	0.446450
O38	O	0.627450	0.433460	0.435100
O39	O	0.718450	0.323885	0.498650
O40	O	0.783250	0.440100	0.487100
N19	N	0.563950	0.078550	0.098100
N20	N	0.930550	0.176950	0.107550
C109	C	0.543900	0.020350	0.006700
H53	H	0.500100	0.006900	0.472050
C110	C	0.646600	0.001000	0.016850
C111	C	0.708550	0.022700	0.067700
H54	H	0.780100	0.011100	0.075250
C112	C	0.953850	0.240450	0.022050
H55	H	0.997550	0.254500	0.488900
C113	C	0.990150	0.198400	0.060850
C114	C	0.505750	0.059550	0.047500
H56	H	0.936050	0.073500	0.039550
C115	C	0.664250	0.061150	0.106850
H57	H	0.706650	0.075850	0.141300
C116	C	0.832250	0.197750	0.117300
C117	C	0.791300	0.239850	0.081300
H58	H	0.722300	0.253750	0.089550
C118	C	0.853950	0.261500	0.032300
C119	C	0.689000	0.455350	0.477500
C120	C	0.811000	0.306900	0.490750
Ni11	Ni	0.747400	0.376980	0.919715
O41	O	0.620650	0.174810	0.696450
O42	O	0.877450	0.066540	0.685100
O43	O	0.968450	0.176115	0.748650
O44	O	0.533250	0.059900	0.737100
N21	N	0.813950	0.421450	0.848100
N22	N	0.680550	0.323050	0.857550
C121	C	0.793900	0.479650	0.756700
H59	H	0.750100	0.493100	0.722050
C122	C	0.896600	0.499000	0.766850
C123	C	0.958550	0.477300	0.817700
H60	H	0.530100	0.488900	0.825250
C124	C	0.703850	0.259550	0.772050
H61	H	0.747550	0.245500	0.738900
C125	C	0.740150	0.301600	0.810850
C126	C	0.755750	0.440450	0.797500
H62	H	0.686050	0.426500	0.789550
C127	C	0.914250	0.438850	0.856850
C128	C	0.582250	0.302250	0.867300
H63	H	0.539650	0.317300	0.900350
C129	C	0.541300	0.260150	0.831300
H64	H	0.972300	0.246250	0.839550
C130	C	0.603950	0.238500	0.782300
C131	C	0.939000	0.044650	0.727500
C132	C	0.561000	0.193100	0.740750
Ni12	Ni	0.997400	0.123020	0.669715
O45	O	0.870650	0.325190	0.946450
O46	O	0.627450	0.433460	0.935100
O47	O	0.718450	0.323885	0.998650
O48	O	0.783250	0.440100	0.987100
N23	N	0.563950	0.078550	0.598100
N24	N	0.930550	0.176950	0.607550
C133	C	0.543900	0.020350	0.506700
H65	H	0.500100	0.006900	0.972050
C134	C	0.646600	0.001000	0.516850
C135	C	0.708550	0.022700	0.567700
H66	H	0.780100	0.011100	0.575250
C136	C	0.953850	0.240450	0.522050
H67	H	0.997550	0.254500	0.988900
C137	C	0.990150	0.198400	0.560850
H68	H	0.559550	0.184350	0.553950
C138	C	0.505750	0.059550	0.547500
H69	H	0.936050	0.073500	0.539550
C139	C	0.664250	0.061150	0.606850
H70	H	0.706650	0.075850	0.641300
C140	C	0.832250	0.197750	0.617300
H71	H	0.789650	0.182700	0.650350
C141	C	0.791300	0.239850	0.581300
H72	H	0.722300	0.253750	0.589550
C142	C	0.853950	0.261500	0.532300
C143	C	0.689000	0.455350	0.977500
C144	C	0.811000	0.306900	0.990750
Ni13	Ni	0.747400	0.876980	0.419715
O49	O	0.620650	0.674810	0.196450
O50	O	0.877450	0.566540	0.185100
O51	O	0.968450	0.676115	0.248650
O52	O	0.533250	0.559900	0.237100
N25	N	0.813950	0.921450	0.348100
N26	N	0.680550	0.823050	0.357550
C145	C	0.793900	0.979650	0.256700
H73	H	0.750100	0.993100	0.222050
C146	C	0.896600	0.999000	0.266850
C147	C	0.958550	0.977300	0.317700
H74	H	0.530100	0.988900	0.325250
C148	C	0.703850	0.759550	0.272050
H75	H	0.747550	0.745500	0.238900
C149	C	0.740150	0.801600	0.310850
C150	C	0.755750	0.940450	0.297500
H76	H	0.686050	0.926500	0.289550
C151	C	0.914250	0.938850	0.356850
C152	C	0.582250	0.802250	0.367300
H77	H	0.539650	0.817300	0.400350
C153	C	0.541300	0.760150	0.331300
H78	H	0.972300	0.746250	0.339550
C154	C	0.603950	0.738500	0.282300
C155	C	0.939000	0.544650	0.227500
C156	C	0.561000	0.693100	0.240750
Ni14	Ni	0.997400	0.623020	0.169715
O53	O	0.870650	0.825190	0.446450
O54	O	0.627450	0.933460	0.435100
O55	O	0.718450	0.823885	0.498650
O56	O	0.783250	0.940100	0.487100
N27	N	0.563950	0.578550	0.098100
N28	N	0.930550	0.676950	0.107550
C157	C	0.543900	0.520350	0.006700
H79	H	0.500100	0.506900	0.472050
C158	C	0.646600	0.501000	0.016850
C159	C	0.708550	0.522700	0.067700
H80	H	0.780100	0.511100	0.075250
C160	C	0.953850	0.740450	0.022050
H81	H	0.997550	0.754500	0.488900
C161	C	0.990150	0.698400	0.060850
C162	C	0.505750	0.559550	0.047500
H82	H	0.936050	0.573500	0.039550
C163	C	0.664250	0.561150	0.106850
H83	H	0.706650	0.575850	0.141300
C164	C	0.832250	0.697750	0.117300
C165	C	0.791300	0.739850	0.081300
H84	H	0.722300	0.753750	0.089550
C166	C	0.853950	0.761500	0.032300
C167	C	0.689000	0.955350	0.477500
C168	C	0.811000	0.806900	0.490750
Ni15	Ni	0.747400	0.876980	0.919715
O57	O	0.620650	0.674810	0.696450
O58	O	0.877450	0.566540	0.685100
O59	O	0.968450	0.676115	0.748650
O60	O	0.533250	0.559900	0.737100
N29	N	0.813950	0.921450	0.848100
N30	N	0.680550	0.823050	0.857550
C169	C	0.793900	0.979650	0.756700
H85	H	0.750100	0.993100	0.722050
C170	C	0.896600	0.999000	0.766850
C171	C	0.958550	0.977300	0.817700
H86	H	0.530100	0.988900	0.825250
C172	C	0.703850	0.759550	0.772050
H87	H	0.747550	0.745500	0.738900
C173	C	0.740150	0.801600	0.810850
H88	H	0.809550	0.815650	0.803950
C174	C	0.755750	0.940450	0.797500
H89	H	0.686050	0.926500	0.789550
C175	C	0.914250	0.938850	0.856850
C176	C	0.582250	0.802250	0.867300
C177	C	0.541300	0.760150	0.831300
H90	H	0.972300	0.746250	0.839550
C178	C	0.603950	0.738500	0.782300
C179	C	0.939000	0.544650	0.727500
C180	C	0.561000	0.693100	0.740750
Ni16	Ni	0.997400	0.623020	0.669715
O61	O	0.870650	0.825190	0.946450
O62	O	0.627450	0.933460	0.935100
O63	O	0.718450	0.823885	0.998650
O64	O	0.783250	0.940100	0.987100
N31	N	0.563950	0.578550	0.598100
N32	N	0.930550	0.676950	0.607550
C181	C	0.543900	0.520350	0.506700
H91	H	0.500100	0.506900	0.972050
C182	C	0.646600	0.501000	0.516850
C183	C	0.708550	0.522700	0.567700
H92	H	0.780100	0.511100	0.575250
C184	C	0.953850	0.740450	0.522050
H93	H	0.997550	0.754500	0.988900
C185	C	0.990150	0.698400	0.560850
C186	C	0.505750	0.559550	0.547500
C187	C	0.664250	0.561150	0.606850
H94	H	0.706650	0.575850	0.641300
C188	C	0.832250	0.697750	0.617300
H95	H	0.789650	0.682700	0.650350
C189	C	0.791300	0.739850	0.581300
H96	H	0.722300	0.753750	0.589550
C190	C	0.853950	0.761500	0.532300
C191	C	0.689000	0.955350	0.977500
C192	C	0.811000	0.806900	0.990750
C193	C	0.485250	0.414634	0.414122
C194	C	0.431638	0.371916	0.456166
H97	H	0.557136	0.396047	0.392717
H98	H	0.510141	0.447803	0.447056
C195	C	0.508114	0.351723	0.509619
H99	H	0.360128	0.389119	0.479586
H100	H	0.407093	0.337396	0.425280
H101	H	0.533274	0.385080	0.542125
H102	H	0.467405	0.321004	0.539141
H103	H	0.580101	0.333510	0.487979
C196	C	0.355469	0.324506	0.299075
C197	C	0.391225	0.370956	0.343434
H104	H	0.414159	0.291602	0.306464
H105	H	0.358352	0.339002	0.248020
C198	C	0.503846	0.389603	0.327393
H106	H	0.335653	0.405265	0.336729
H107	H	0.391424	0.357894	0.395136
H108	H	0.506436	0.403715	0.276212
H109	H	0.527530	0.423076	0.360076
H110	H	0.562042	0.356484	0.334445
C199	C	0.235249	0.085365	0.164123
C200	C	0.181636	0.128081	0.206169
H111	H	0.260141	0.052195	0.197056
H112	H	0.307135	0.103953	0.142718
C201	C	0.258110	0.148273	0.259623
H113	H	0.157090	0.162603	0.175285
H114	H	0.110126	0.110877	0.229587
H115	H	0.330097	0.166488	0.237985
H116	H	0.217399	0.178990	0.289147
H117	H	0.283272	0.114915	0.292127
C202	C	0.605469	0.175494	0.049075
C203	C	0.641225	0.129044	0.093434
H118	H	0.664159	0.208398	0.056464
H119	H	0.608352	0.160998	-0.001980
C204	C	0.753846	0.110397	0.077393
H120	H	0.585653	0.094735	0.086729
H121	H	0.641424	0.142106	0.145136
H122	H	0.756436	0.096285	0.026212
H123	H	0.777530	0.076924	0.110076
H124	H	0.812042	0.143516	0.084445
C205	C	0.485250	0.414634	0.914122
C206	C	0.431638	0.371916	0.956166
H125	H	0.557136	0.396047	0.892717
H126	H	0.510141	0.447803	0.947056
C207	C	0.508114	0.351723	1.009619
H127	H	0.360128	0.389119	0.979586
H128	H	0.407093	0.337396	0.925280
H129	H	0.533274	0.385080	1.042125
H130	H	0.467405	0.321004	1.039141
H131	H	0.580101	0.333510	0.987979
C208	C	0.011499	0.327247	0.922208
C209	C	0.061184	0.374053	0.960768
H132	H	-0.006740	0.295240	0.957759
H133	H	-0.064074	0.341985	0.899054
C210	C	-0.015039	0.394500	1.012154
H134	H	0.078996	0.407511	0.927149
H135	H	0.136294	0.360795	0.985815
H136	H	-0.090671	0.408849	0.988797
H137	H	0.022803	0.428193	1.039180
H138	H	-0.033543	0.362271	1.047290
C211	C	0.235249	0.085365	0.664123
C212	C	0.181636	0.128081	0.706169
H139	H	0.260141	0.052195	0.697056
H140	H	0.307135	0.103953	0.642718
C213	C	0.258110	0.148273	0.759623
H141	H	0.157090	0.162603	0.675285
H142	H	0.110126	0.110877	0.729587
H143	H	0.330097	0.166488	0.737985
H144	H	0.217399	0.178990	0.789147
H145	H	0.283272	0.114915	0.792127
C214	C	0.261499	0.172753	0.672208
C215	C	0.311184	0.125947	0.710768
H146	H	0.243260	0.204760	0.707759
H147	H	0.185926	0.158015	0.649054
C216	C	0.234961	0.105500	0.762154
H148	H	0.328996	0.092489	0.677149
H149	H	0.386294	0.139205	0.735815
H150	H	0.159329	0.091151	0.738797
H151	H	0.272803	0.071807	0.789180
H152	H	0.216457	0.137729	0.797290
C217	C	0.485250	0.914634	0.414122
C218	C	0.431638	0.871916	0.456166
H153	H	0.557136	0.896047	0.392717
H154	H	0.510141	0.947803	0.447056
C219	C	0.508114	0.851723	0.509619
H155	H	0.360128	0.889119	0.479586
H156	H	0.407093	0.837396	0.425280
H157	H	0.533274	0.885080	0.542125
H158	H	0.467405	0.821004	0.539141
H159	H	0.580101	0.833510	0.487979
C220	C	0.011498	0.827248	0.422207
C221	C	0.061180	0.874056	0.460765
H160	H	-0.064075	0.841985	0.399052
H161	H	-0.006740	0.795242	0.457758
C222	C	-0.015043	0.894504	0.512150
H162	H	0.136291	0.860800	0.485814
H163	H	0.078993	0.907512	0.427144
H164	H	-0.033546	0.862276	0.547288
H165	H	0.022797	0.928199	0.539173
H166	H	-0.090676	0.908850	0.488791
C223	C	0.235250	0.585366	0.164122
C224	C	0.181638	0.628084	0.206166
H167	H	0.307136	0.603953	0.142717
H168	H	0.260141	0.552197	0.197056
C225	C	0.258114	0.648277	0.259619
H169	H	0.110128	0.610881	0.229586
H170	H	0.157093	0.662604	0.175280
H171	H	0.283274	0.614920	0.292125
H172	H	0.217405	0.678996	0.289141
H173	H	0.330101	0.666490	0.237979
C226	C	0.605469	0.675494	0.049075
C227	C	0.641225	0.629044	0.093434
H174	H	0.664159	0.708398	0.056464
H175	H	0.608352	0.660998	-0.001980
C228	C	0.753846	0.610397	0.077393
H176	H	0.585653	0.594735	0.086729
H177	H	0.641424	0.642106	0.145136
H178	H	0.756436	0.596285	0.026212
H179	H	0.777530	0.576924	0.110076
H180	H	0.812042	0.643516	0.084445
C229	C	0.485250	0.914634	0.914122
C230	C	0.431638	0.871916	0.956166
H181	H	0.557136	0.896047	0.892717
H182	H	0.510141	0.947803	0.947056
C231	C	0.508114	0.851723	1.009619
H183	H	0.360128	0.889119	0.979586
H184	H	0.407093	0.837396	0.925280
H185	H	0.533274	0.885080	1.042125
H186	H	0.467405	0.821004	1.039141
H187	H	0.580101	0.833510	0.987979
C232	C	0.355468	0.824506	0.799074
C233	C	0.391222	0.870959	0.843431
H188	H	0.358350	0.839002	0.748018
H189	H	0.414159	0.791604	0.806463
C234	C	0.503842	0.889607	0.827389
H190	H	0.391423	0.857899	0.895133
H191	H	0.335648	0.905267	0.836725
H192	H	0.562040	0.856489	0.834443
H193	H	0.527524	0.923081	0.860069
H194	H	0.506430	0.903717	0.776207
C235	C	-0.109904	0.582539	0.533934
C236	C	-0.147752	0.626031	0.580999
H195	H	-0.112221	0.600011	0.484199
H196	H	-0.167806	0.548957	0.536396
C237	C	-0.260535	0.644950	0.562758
H197	H	-0.148567	0.609935	0.631398
H198	H	-0.093016	0.660956	0.579234
H199	H	-0.317933	0.611177	0.564884
H200	H	-0.285741	0.676260	0.597459
H201	H	-0.262546	0.662047	0.512873
C238	C	0.605469	0.675494	0.549075
C239	C	0.641225	0.629044	0.593434
H202	H	0.664159	0.708398	0.556464
H203	H	0.608352	0.660998	0.498020
C240	C	0.753846	0.610397	0.577393
H204	H	0.585653	0.594735	0.586729
H205	H	0.641424	0.642106	0.645136
H206	H	0.756436	0.596285	0.526212
H207	H	0.777530	0.576924	0.610076
H208	H	0.812042	0.643516	0.584445
C241	C	0.640096	0.417461	0.283934
C242	C	0.602248	0.373969	0.330999
H209	H	0.637779	0.399989	0.234199
H210	H	0.582194	0.451043	0.286396
C243	C	0.489465	0.355050	0.312758
H211	H	0.601433	0.390065	0.381398
H212	H	0.656984	0.339044	0.329234
H213	H	0.432067	0.388823	0.314884
H214	H	0.464259	0.323740	0.347459
H215	H	0.487454	0.337953	0.262873
C244	C	0.511499	0.327247	0.422208
C245	C	0.561184	0.374053	0.460768
H216	H	0.493260	0.295240	0.457759
H217	H	0.435926	0.341985	0.399054
C246	C	0.484961	0.394500	0.512154
H218	H	0.578996	0.407511	0.427149
H219	H	0.636294	0.360795	0.485815
H220	H	0.409329	0.408849	0.488797
H221	H	0.522803	0.428193	0.539180
H222	H	0.466457	0.362271	0.547290
C247	C	0.390096	0.082539	0.033934
C248	C	0.352248	0.126031	0.080999
H223	H	0.387779	0.100011	-0.015801
H224	H	0.332194	0.048957	0.036396
C249	C	0.239465	0.144950	0.062758
H225	H	0.351433	0.109935	0.131398
H226	H	0.406984	0.160956	0.079234
H227	H	0.182067	0.111177	0.064884
H228	H	0.214259	0.176260	0.097459
H229	H	0.237454	0.162047	0.012873
C250	C	0.761498	0.172752	0.172207
C251	C	0.811180	0.125944	0.210765
H230	H	0.685925	0.158015	0.149052
H231	H	0.743260	0.204758	0.207758
C252	C	0.734957	0.105496	0.262150
H232	H	0.886291	0.139200	0.235814
H233	H	0.828993	0.092488	0.177144
H234	H	0.716454	0.137724	0.297288
H235	H	0.772797	0.071801	0.289173
H236	H	0.659324	0.091150	0.238791
C253	C	0.985249	0.414635	0.914123
C254	C	0.931636	0.371919	0.956169
H237	H	1.010141	0.447805	0.947056
H238	H	1.057135	0.396047	0.892718
C255	C	1.008110	0.351727	1.009623
H239	H	0.907090	0.337397	0.925285
H240	H	0.860126	0.389123	0.979587
H241	H	1.080097	0.333512	0.987985
H242	H	0.967399	0.321010	1.039147
H243	H	1.033272	0.385085	1.042127
C256	C	0.855468	0.324506	0.799074
C257	C	0.891222	0.370959	0.843431
H244	H	0.858350	0.339002	0.748018
H245	H	0.914159	0.291604	0.806463
C258	C	1.003842	0.389607	0.827389
H246	H	0.891423	0.357899	0.895133
H247	H	0.835648	0.405267	0.836725
H248	H	1.062040	0.356489	0.834443
H249	H	1.027524	0.423081	0.860069
H250	H	1.006430	0.403717	0.776207
C259	C	0.390096	0.082539	0.533934
C260	C	0.352248	0.126031	0.580999
H251	H	0.387779	0.100011	0.484199
H252	H	0.332194	0.048957	0.536396
C261	C	0.239465	0.144950	0.562758
H253	H	0.351433	0.109935	0.631398
H254	H	0.406984	0.160956	0.579234
H255	H	0.182067	0.111177	0.564884
H256	H	0.214259	0.176260	0.597459
H257	H	0.237454	0.162047	0.512873
C262	C	1.105469	0.175494	0.549075
C263	C	1.141225	0.129044	0.593434
H258	H	1.164159	0.208398	0.556464
H259	H	1.108352	0.160998	0.498020
C264	C	1.253846	0.110397	0.577393
H260	H	1.085653	0.094735	0.586729
H261	H	1.141424	0.142106	0.645136
H262	H	1.256436	0.096285	0.526212
H263	H	1.277530	0.076924	0.610076
H264	H	1.312042	0.143516	0.584445
C265	C	0.985250	0.914634	0.414122
C266	C	0.931638	0.871916	0.456166
H265	H	1.057136	0.896047	0.392717
H266	H	1.010141	0.947803	0.447056
C267	C	1.008114	0.851723	0.509619
H267	H	0.860128	0.889119	0.479586
H268	H	0.907093	0.837396	0.425280
H269	H	1.033274	0.885080	0.542125
H270	H	0.967405	0.821004	0.539141
H271	H	1.080101	0.833510	0.487979
C268	C	0.855468	0.824506	0.299074
C269	C	0.891222	0.870959	0.343431
H272	H	0.858350	0.839002	0.248018
H273	H	0.914159	0.791604	0.306463
C270	C	1.003842	0.889607	0.327389
H274	H	0.891423	0.857899	0.395133
H275	H	0.835648	0.905267	0.336725
H276	H	1.062040	0.856489	0.334443
H277	H	1.027524	0.923081	0.360069
H278	H	1.006430	0.903717	0.276207
C271	C	0.390096	0.582539	0.033934
C272	C	0.352248	0.626031	0.080999
H279	H	0.387779	0.600011	-0.015801
H280	H	0.332194	0.548957	0.036396
C273	C	0.239465	0.644950	0.062758
H281	H	0.351433	0.609935	0.131398
H282	H	0.406984	0.660956	0.079234
H283	H	0.182067	0.611177	0.064884
H284	H	0.214259	0.676260	0.097459
H285	H	0.237454	0.662047	0.012873
C274	C	0.761498	0.672752	0.172207
C275	C	0.811180	0.625944	0.210765
H286	H	0.685925	0.658015	0.149052
H287	H	0.743260	0.704758	0.207758
C276	C	0.734957	0.605496	0.262150
H288	H	0.886291	0.639200	0.235814
H289	H	0.828993	0.592488	0.177144
H290	H	0.716454	0.637724	0.297288
H291	H	0.772797	0.571801	0.289173
H292	H	0.659324	0.591150	0.238791
C277	C	0.985250	0.914634	0.914122
C278	C	0.931638	0.871916	0.956166
H293	H	1.057136	0.896047	0.892717
H294	H	1.010141	0.947803	0.947056
C279	C	1.008114	0.851723	1.009619
H295	H	0.860128	0.889119	0.979586
H296	H	0.907093	0.837396	0.925280
H297	H	1.033274	0.885080	1.042125
H298	H	0.967405	0.821004	1.039141
H299	H	1.080101	0.833510	0.987979
C280	C	0.511499	0.827247	0.922208
C281	C	0.561184	0.874053	0.960768
H300	H	0.493260	0.795240	0.957759
H301	H	0.435926	0.841985	0.899054
C282	C	0.484961	0.894500	1.012154
H302	H	0.578996	0.907511	0.927149
H303	H	0.636294	0.860795	0.985815
H304	H	0.409329	0.908849	0.988797
H305	H	0.522803	0.928193	1.039180
H306	H	0.466457	0.862271	1.047290
C283	C	0.390096	0.582539	0.533934
C284	C	0.352248	0.626031	0.580999
H307	H	0.387779	0.600011	0.484199
H308	H	0.332194	0.548957	0.536396
C285	C	0.239465	0.644950	0.562758
H309	H	0.351433	0.609935	0.631398
H310	H	0.406984	0.660956	0.579234
H311	H	0.182067	0.611177	0.564884
H312	H	0.214259	0.676260	0.597459
H313	H	0.237454	0.662047	0.512873
C286	C	1.105469	0.675494	0.549075
C287	C	1.141225	0.629044	0.593434
H314	H	1.164159	0.708398	0.556464
H315	H	1.108352	0.660998	0.498020
C288	C	1.253846	0.610397	0.577393
H316	H	1.085653	0.594735	0.586729
H317	H	1.141424	0.642106	0.645136
H318	H	1.256436	0.596285	0.526212
H319	H	1.277530	0.576924	0.610076
H320	H	1.312042	0.643516	0.584445

loop_
_geom_bond_atom_site_label_1
_geom_bond_atom_site_label_2
_geom_bond_distance
Ni1	N1	0.10740
Ni1	N2	0.10603
Ni1	O5	0.13634
Ni1	O6	0.13347
Ni1	O7	0.09944
Ni1	O8	0.09905
O1	C12	0.07652
O1	Ni10	0.13634
O2	C11	0.07788
O2	Ni2	0.13347
O3	Ni2	0.09944
O3	C108	0.09443
O4	C107	0.09596
O4	Ni10	0.09905
N1	C6	0.07943
N1	C7	0.10217
N2	C5	0.07870
N2	C8	0.10095
C1	H1	0.05745
C1	C2	0.10500
C1	C6	0.06824
C2	C3	0.08303
C2	C59	0.07369
C3	C7	0.07052
C3	H48	0.07288
H2	C99	0.07288
C4	H3	0.05662
C4	C5	0.06776
C4	C10	0.10261
C5	C196	0.11816
C6	H4	0.07153
C7	C193	0.09438
C8	H5	0.05598
C8	C9	0.06889
C9	C10	0.08243
C9	H52	0.07087
H6	C105	0.07087
C10	C12	0.07505
C11	C50	0.07369
C11	O36	0.09596
C12	O35	0.09443
Ni2	N4	0.10603
Ni2	O33	0.13634
Ni2	O36	0.09905
Ni2	N19	0.10740
O5	C24	0.07652
O6	C23	0.07788
O7	C24	0.09443
O8	C23	0.09596
N3	C18	0.07943
N3	C19	0.10217
N3	Ni10	0.10740
N4	C17	0.07870
N4	C20	0.10095
C13	C14	0.10500
C13	C18	0.06824
C13	H19	0.05745
H7	C37	0.05745
C14	C15	0.08303
C14	C95	0.07369
C15	H8	0.07288
C15	C19	0.07052
C16	C17	0.06776
C16	C22	0.10261
C16	H21	0.05662
H9	C40	0.05662
C17	C202	0.11816
H10	C113	0.07114
C18	H56	0.07153
C19	C199	0.09438
C20	H11	0.05598
C20	C21	0.06889
C21	H12	0.07087
C21	C22	0.08243
C22	C48	0.07505
C23	C86	0.07369
C24	C46	0.07505
Ni3	N5	0.10740
Ni3	N6	0.10603
Ni3	O13	0.13634
Ni3	O14	0.13347
Ni3	O15	0.09944
Ni3	O16	0.09905
O9	C36	0.07652
O9	Ni12	0.13634
O10	C35	0.07788
O10	Ni4	0.13347
O11	Ni4	0.09944
O11	C132	0.09443
O12	C131	0.09596
O12	Ni12	0.09905
N5	C30	0.07943
N5	C31	0.10217
N6	C29	0.07870
N6	C32	0.10095
C25	H13	0.05745
C25	C26	0.10500
C25	C30	0.06824
C26	C27	0.08303
C26	C83	0.07369
C27	C31	0.07052
C27	H60	0.07288
H14	C123	0.07288
C28	H15	0.05662
C28	C29	0.06776
C28	C34	0.10261
C29	H16	0.07114
C30	H17	0.07153
C31	C205	0.09438
C32	C33	0.06889
C32	C208	0.09298
C33	C34	0.08243
C33	H64	0.07087
H18	C129	0.07087
C34	C36	0.07505
C35	C74	0.07369
C35	O44	0.09596
C36	O43	0.09443
Ni4	N8	0.10603
Ni4	O41	0.13634
Ni4	O44	0.09905
Ni4	N23	0.10740
O13	C48	0.07652
O14	C47	0.07788
O15	C48	0.09443
O16	C47	0.09596
N7	C42	0.07943
N7	C43	0.10217
N7	Ni12	0.10740
N8	C41	0.07870
N8	C44	0.10095
C37	C38	0.10500
C37	C42	0.06824
C38	C39	0.08303
C38	C71	0.07369
C39	H20	0.07288
C39	C43	0.07052
C40	C41	0.06776
C40	C46	0.10261
C41	H68	0.07114
C42	H69	0.07153
C43	C211	0.09438
C44	C45	0.06889
C44	C214	0.09298
C45	H22	0.07087
C45	C46	0.08243
C47	C62	0.07369
Ni5	N9	0.10740
Ni5	N10	0.10603
Ni5	O21	0.13634
Ni5	O22	0.13347
Ni5	O23	0.09944
Ni5	O24	0.09905
O17	C60	0.07652
O17	Ni14	0.13634
O18	C59	0.07788
O18	Ni6	0.13347
O19	Ni6	0.09944
O19	C156	0.09443
O20	C155	0.09596
O20	Ni14	0.09905
N9	C54	0.07943
N9	C55	0.10217
N10	C53	0.07870
N10	C56	0.10095
C49	H23	0.05745
C49	C50	0.10500
C49	C54	0.06824
C50	C51	0.08303
C51	C55	0.07052
C51	H74	0.07288
H24	C147	0.07288
C52	H25	0.05662
C52	C53	0.06776
C52	C58	0.10261
C53	H26	0.07114
C54	H27	0.07153
C55	C217	0.09438
C56	C57	0.06889
C56	C220	0.09298
C57	C58	0.08243
C57	H78	0.07087
H28	C153	0.07087
C58	C60	0.07505
C59	O52	0.09596
C60	O51	0.09443
Ni6	N12	0.10603
Ni6	O49	0.13634
Ni6	O52	0.09905
Ni6	N27	0.10740
O21	C72	0.07652
O22	C71	0.07788
O23	C72	0.09443
O24	C71	0.09596
N11	C66	0.07943
N11	C67	0.10217
N11	Ni14	0.10740
N12	C65	0.07870
N12	C68	0.10095
C61	C62	0.10500
C61	C66	0.06824
C61	H41	0.05745
H29	C85	0.05745
C62	C63	0.08303
C63	H30	0.07288
C63	C67	0.07052
C64	C65	0.06776
C64	C70	0.10261
C64	H43	0.05662
H31	C88	0.05662
C65	C226	0.11816
H32	C161	0.07114
C66	H82	0.07153
C67	C223	0.09438
C68	H33	0.05598
C68	C69	0.06889
C69	H34	0.07087
C69	C70	0.08243
C70	C96	0.07505
C72	C94	0.07505
Ni7	N13	0.10740
Ni7	N14	0.10603
Ni7	O29	0.13634
Ni7	O30	0.13347
Ni7	O31	0.09944
Ni7	O32	0.09905
O25	C84	0.07652
O25	Ni16	0.13634
O26	C83	0.07788
O26	Ni8	0.13347
O27	Ni8	0.09944
O27	C180	0.09443
O28	C179	0.09596
O28	Ni16	0.09905
N13	C78	0.07943
N13	C79	0.10217
N14	C77	0.07870
N14	C80	0.10095
C73	H35	0.05745
C73	C74	0.10500
C73	C78	0.06824
C74	C75	0.08303
C75	C79	0.07052
C75	H86	0.07288
H36	C171	0.07288
C76	H37	0.05662
C76	C77	0.06776
C76	C82	0.10261
C77	C232	0.11816
C78	H38	0.07153
C79	C229	0.09438
C80	H39	0.05598
C80	C81	0.06889
C81	C82	0.08243
C81	H90	0.07087
H40	C177	0.07087
C82	C84	0.07505
C83	O60	0.09596
C84	O59	0.09443
Ni8	N16	0.10603
Ni8	O57	0.13634
Ni8	O60	0.09905
Ni8	N31	0.10740
O29	C96	0.07652
O30	C95	0.07788
O31	C96	0.09443
O32	C95	0.09596
N15	C90	0.07943
N15	C91	0.10217
N15	Ni16	0.10740
N16	C89	0.07870
N16	C92	0.10095
C85	C86	0.10500
C85	C90	0.06824
C86	C87	0.08303
C87	H42	0.07288
C87	C91	0.07052
C88	C89	0.06776
C88	C94	0.10261
C89	C238	0.11816
C90	C235	0.11869
C91	H44	0.05657
C92	H45	0.05598
C92	C93	0.06889
C93	H46	0.07087
C93	C94	0.08243
Ni9	N17	0.10740
Ni9	N18	0.10603
Ni9	O37	0.13634
Ni9	O38	0.13347
Ni9	O39	0.09944
Ni9	O40	0.09905
O33	C108	0.07652
O34	C107	0.07788
O34	Ni10	0.13347
O35	Ni10	0.09944
N17	C102	0.07943
N17	C103	0.10217
N18	C101	0.07870
N18	C104	0.10095
C97	H47	0.05745
C97	C98	0.10500
C97	C102	0.06824
C98	C99	0.08303
C98	C155	0.07369
C99	C103	0.07052
C100	H49	0.05662
C100	C101	0.06776
C100	C106	0.10261
C101	H50	0.07114
C102	C241	0.11869
C103	H51	0.05657
C104	C105	0.06889
C104	C244	0.09298
C105	C106	0.08243
C106	C108	0.07505
C107	C146	0.07369
Ni10	N20	0.10603
O37	C120	0.07652
O38	C119	0.07788
O39	C120	0.09443
O40	C119	0.09596
N19	C114	0.07943
N19	C115	0.10217
N20	C113	0.07870
N20	C116	0.10095
C109	C110	0.10500
C109	C114	0.06824
C109	H65	0.05745
H53	C133	0.05745
C110	C111	0.08303
C110	C191	0.07369
C111	H54	0.07288
C111	C115	0.07052
C112	C113	0.06776
C112	C118	0.10261
C112	H67	0.05662
H55	C136	0.05662
C114	C247	0.11869
C115	H57	0.05657
C116	C117	0.06889
C116	C250	0.09298
C117	H58	0.07087
C117	C118	0.08243
C118	C144	0.07505
C119	C182	0.07369
C120	C142	0.07505
Ni11	N21	0.10740
Ni11	N22	0.10603
Ni11	O45	0.13634
Ni11	O46	0.13347
Ni11	O47	0.09944
Ni11	O48	0.09905
O41	C132	0.07652
O42	C131	0.07788
O42	Ni12	0.13347
O43	Ni12	0.09944
N21	C126	0.07943
N21	C127	0.10217
N22	C125	0.07870
N22	C128	0.10095
C121	H59	0.05745
C121	C122	0.10500
C121	C126	0.06824
C122	C123	0.08303
C122	C179	0.07369
C123	C127	0.07052
C124	H61	0.05662
C124	C125	0.06776
C124	C130	0.10261
C125	C256	0.11816
C126	H62	0.07153
C127	C253	0.09438
C128	H63	0.05598
C128	C129	0.06889
C129	C130	0.08243
C130	C132	0.07505
C131	C170	0.07369
Ni12	N24	0.10603
O45	C144	0.07652
O46	C143	0.07788
O47	C144	0.09443
O48	C143	0.09596
N23	C138	0.07943
N23	C139	0.10217
N24	C137	0.07870
N24	C140	0.10095
C133	C134	0.10500
C133	C138	0.06824
C134	C135	0.08303
C134	C167	0.07369
C135	H66	0.07288
C135	C139	0.07052
C136	C137	0.06776
C136	C142	0.10261
C137	C262	0.11816
C138	C259	0.11869
C139	H70	0.05657
C140	H71	0.05598
C140	C141	0.06889
C141	H72	0.07087
C141	C142	0.08243
C143	C158	0.07369
Ni13	N25	0.10740
Ni13	N26	0.10603
Ni13	O53	0.13634
Ni13	O54	0.13347
Ni13	O55	0.09944
Ni13	O56	0.09905
O49	C156	0.07652
O50	C155	0.07788
O50	Ni14	0.13347
O51	Ni14	0.09944
N25	C150	0.07943
N25	C151	0.10217
N26	C149	0.07870
N26	C152	0.10095
C145	H73	0.05745
C145	C146	0.10500
C145	C150	0.06824
C146	C147	0.08303
C147	C151	0.07052
C148	H75	0.05662
C148	C149	0.06776
C148	C154	0.10261
C149	C268	0.11816
C150	H76	0.07153
C151	C265	0.09438
C152	H77	0.05598
C152	C153	0.06889
C153	C154	0.08243
C154	C156	0.07505
Ni14	N28	0.10603
O53	C168	0.07652
O54	C167	0.07788
O55	C168	0.09443
O56	C167	0.09596
N27	C162	0.07943
N27	C163	0.10217
N28	C161	0.07870
N28	C164	0.10095
C157	C158	0.10500
C157	C162	0.06824
C157	H91	0.05745
H79	C181	0.05745
C158	C159	0.08303
C159	H80	0.07288
C159	C163	0.07052
C160	C161	0.06776
C160	C166	0.10261
C160	H93	0.05662
H81	C184	0.05662
C162	C271	0.11869
C163	H83	0.05657
C164	C165	0.06889
C164	C274	0.09298
C165	H84	0.07087
C165	C166	0.08243
C166	C192	0.07505
C168	C190	0.07505
Ni15	N29	0.10740
Ni15	N30	0.10603
Ni15	O61	0.13634
Ni15	O62	0.13347
Ni15	O63	0.09944
Ni15	O64	0.09905
O57	C180	0.07652
O58	C179	0.07788
O58	Ni16	0.13347
O59	Ni16	0.09944
N29	C174	0.07943
N29	C175	0.10217
N30	C173	0.07870
N30	C176	0.10095
C169	H85	0.05745
C169	C170	0.10500
C169	C174	0.06824
C170	C171	0.08303
C171	C175	0.07052
C172	H87	0.05662
C172	C173	0.06776
C172	C178	0.10261
C173	H88	0.07114
C174	H89	0.07153
C175	C277	0.09438
C176	C177	0.06889
C176	C280	0.09298
C177	C178	0.08243
C178	C180	0.07505
Ni16	N32	0.10603
O61	C192	0.07652
O62	C191	0.07788
O63	C192	0.09443
O64	C191	0.09596
N31	C186	0.07943
N31	C187	0.10217
N32	C185	0.07870
N32	C188	0.10095
C181	C182	0.10500
C181	C186	0.06824
C182	C183	0.08303
C183	H92	0.07288
C183	C187	0.07052
C184	C185	0.06776
C184	C190	0.10261
C185	C286	0.11816
C186	C283	0.11869
C187	H94	0.05657
C188	H95	0.05598
C188	C189	0.06889
C189	H96	0.07087
C189	C190	0.08243
C193	C194	0.08042
C193	H97	0.07727
C193	H98	0.05296
C194	C195	0.09546
C194	H99	0.07719
C194	H100	0.05242
C195	H101	0.05294
C195	H102	0.05893
C195	H103	0.07734
C196	C197	0.07351
C196	H104	0.06769
C196	H105	0.05315
C197	C198	0.11528
C197	H106	0.06565
C197	H107	0.05333
C198	H108	0.05315
C198	H109	0.05244
C198	H110	0.06733
C199	C200	0.08042
C199	H111	0.05296
C199	H112	0.07727
C200	C201	0.09546
C200	H113	0.05242
C200	H114	0.07719
C201	H115	0.07734
C201	H116	0.05893
C201	H117	0.05294
C202	C203	0.07351
C202	H118	0.06769
C202	H119	0.05315
C203	C204	0.11528
C203	H120	0.06565
C203	H121	0.05333
C204	H122	0.05315
C204	H123	0.05244
C204	H124	0.06733
C205	C206	0.08042
C205	H125	0.07727
C205	H126	0.05296
C206	C207	0.09546
C206	H127	0.07719
C206	H128	0.05242
C207	H129	0.05294
C207	H130	0.05893
C207	H131	0.07734
C208	C209	0.07840
C208	H132	0.05119
C208	H133	0.08040
C209	C210	0.09417
C209	H134	0.05067
C209	H135	0.08028
C210	H136	0.08045
C210	H137	0.05742
C210	H138	0.05114
C211	C212	0.08042
C211	H139	0.05296
C211	H140	0.07727
C212	C213	0.09546
C212	H141	0.05242
C212	H142	0.07719
C213	H143	0.07734
C213	H144	0.05893
C213	H145	0.05294
C214	C215	0.07840
C214	H146	0.05119
C214	H147	0.08040
C215	C216	0.09417
C215	H148	0.05067
C215	H149	0.08028
C216	H150	0.08045
C216	H151	0.05742
C216	H152	0.05114
C217	C218	0.08042
C217	H153	0.07727
C217	H154	0.05296
C218	C219	0.09546
C218	H155	0.07719
C218	H156	0.05242
C219	H157	0.05294
C219	H158	0.05893
C219	H159	0.07734
C220	C221	0.07840
C220	H160	0.08040
C220	H161	0.05119
C221	C222	0.09417
C221	H162	0.08028
C221	H163	0.05067
C222	H164	0.05114
C222	H165	0.05742
C222	H166	0.08045
C223	C224	0.08042
C223	H167	0.07727
C223	H168	0.05296
C224	C225	0.09546
C224	H169	0.07719
C224	H170	0.05242
C225	H171	0.05294
C225	H172	0.05893
C225	H173	0.07734
C226	C227	0.07351
C226	H174	0.06769
C226	H175	0.05315
C227	C228	0.11528
C227	H176	0.06565
C227	H177	0.05333
C228	H178	0.05315
C228	H179	0.05244
C228	H180	0.06733
C229	C230	0.08042
C229	H181	0.07727
C229	H182	0.05296
C230	C231	0.09546
C230	H183	0.07719
C230	H184	0.05242
C231	H185	0.05294
C231	H186	0.05893
C231	H187	0.07734
C232	C233	0.07351
C232	H188	0.05315
C232	H189	0.06769
C233	C234	0.11527
C233	H190	0.05333
C233	H191	0.06565
C234	H192	0.06733
C234	H193	0.05243
C234	H194	0.05315
C235	C236	0.07443
C235	H195	0.05277
C235	H196	0.06698
C236	C237	0.11580
C236	H197	0.05291
C236	H198	0.06495
C237	H199	0.06663
C237	H200	0.05310
C237	H201	0.05277
C238	C239	0.07351
C238	H202	0.06769
C238	H203	0.05315
C239	C240	0.11528
C239	H204	0.06565
C239	H205	0.05333
C240	H206	0.05315
C240	H207	0.05244
C240	H208	0.06733
C241	C242	0.07443
C241	H209	0.05277
C241	H210	0.06698
C242	C243	0.11580
C242	H211	0.05291
C242	H212	0.06495
C243	H213	0.06663
C243	H214	0.05310
C243	H215	0.05277
C244	C245	0.07840
C244	H216	0.05119
C244	H217	0.08040
C245	C246	0.09417
C245	H218	0.05067
C245	H219	0.08028
C246	H220	0.08045
C246	H221	0.05742
C246	H222	0.05114
C247	C248	0.07443
C247	H223	0.05277
C247	H224	0.06698
C248	C249	0.11580
C248	H225	0.05291
C248	H226	0.06495
C249	H227	0.06663
C249	H228	0.05310
C249	H229	0.05277
C250	C251	0.07840
C250	H230	0.08040
C250	H231	0.05119
C251	C252	0.09417
C251	H232	0.08028
C251	H233	0.05067
C252	H234	0.05114
C252	H235	0.05742
C252	H236	0.08045
C253	C254	0.08042
C253	H237	0.05296
C253	H238	0.07727
C254	C255	0.09546
C254	H239	0.05242
C254	H240	0.07719
C255	H241	0.07734
C255	H242	0.05893
C255	H243	0.05294
C256	C257	0.07351
C256	H244	0.05315
C256	H245	0.06769
C257	C258	0.11527
C257	H246	0.05333
C257	H247	0.06565
C258	H248	0.06733
C258	H249	0.05243
C258	H250	0.05315
C259	C260	0.07443
C259	H251	0.05277
C259	H252	0.06698
C260	C261	0.11580
C260	H253	0.05291
C260	H254	0.06495
C261	H255	0.06663
C261	H256	0.05310
C261	H257	0.05277
C262	C263	0.07351
C262	H258	0.06769
C262	H259	0.05315
C263	C264	0.11528
C263	H260	0.06565
C263	H261	0.05333
C264	H262	0.05315
C264	H263	0.05244
C264	H264	0.06733
C265	C266	0.08042
C265	H265	0.07727
C265	H266	0.05296
C266	C267	0.09546
C266	H267	0.07719
C266	H268	0.05242
C267	H269	0.05294
C267	H270	0.05893
C267	H271	0.07734
C268	C269	0.07351
C268	H272	0.05315
C268	H273	0.06769
C269	C270	0.11527
C269	H274	0.05333
C269	H275	0.06565
C270	H276	0.06733
C270	H277	0.05243
C270	H278	0.05315
C271	C272	0.07443
C271	H279	0.05277
C271	H280	0.06698
C272	C273	0.11580
C272	H281	0.05291
C272	H282	0.06495
C273	H283	0.06663
C273	H284	0.05310
C273	H285	0.05277
C274	C275	0.07840
C274	H286	0.08040
C274	H287	0.05119
C275	C276	0.09417
C275	H288	0.08028
C275	H289	0.05067
C276	H290	0.05114
C276	H291	0.05742
C276	H292	0.08045
C277	C278	0.08042
C277	H293	0.07727
C277	H294	0.05296
C278	C279	0.09546
C278	H295	0.07719
C278	H296	0.05242
C279	H297	0.05294
C279	H298	0.05893
C279	H299	0.07734
C280	C281	0.07840
C280	H300	0.05119
C280	H301	0.08040
C281	C282	0.09417
C281	H302	0.05067
C281	H303	0.08028
C282	H304	0.08045
C282	H305	0.05742
C282	H306	0.05114
C283	C284	0.07443
C283	H307	0.05277
C283	H308	0.06698
C284	C285	0.11580
C284	H309	0.05291
C284	H310	0.06495
C285	H311	0.06663
C285	H312	0.05310
C285	H313	0.05277
C286	C287	0.07351
C286	H314	0.06769
C286	H315	0.05315
C287	C288	0.11528
C287	H316	0.06565
C287	H317	0.05333
C288	H318	0.05315
C288	H319	0.05244
C288	H320	0.06733
