data_NiPyC2_NiPyC2_aligned_OH_NiPyC2_aligned_OH_NiPyC2_aligned_OH_NiPyC2_aligned_OH_NiPyC2_aligned_OH_NiPyC2_aligned_OH_NiPyC2_aligned_OH_NiPyC2_aligned_OH_NiPyC2_aligned_OH_NiPyC2_aligned_OH_NiPyC2_aligned_OH_NiPyC2_aligned_OH_NiPyC2_aligned_OH_NiPyC2_aligned_OH_NiPyC2_aligned_OH_NiPyC2_aligned_OH_NiPyC2_aligned_OH_NiPyC2_aligned_OH_NiPyC2_aligned_OH_NiPyC2_aligned_OH_NiPyC2_aligned_OH_NiPyC2_aligned_OH_NiPyC2_aligned_OH_NiPyC2_aligned_OH_NiPyC2_aligned_OH_NiPyC2_aligned_OH_NiPyC2_aligned_OH_NiPyC2_aligned_OH_NiPyC2_aligned_OH_NiPyC2_aligned_OH_NiPyC2_aligned_OH_NiPyC2_aligned_OH_PM
_symmetry_space_group_name_H-M	'P1'
_cell_length_a	12.505600
_cell_length_b	25.046800
_cell_length_c	20.553600
_cell_angle_alpha	90.000000
_cell_angle_beta	91.269000
_cell_angle_gamma	90.000000
_symmetry_Int_Tables_number 1

loop_
_symmetry_equiv_pos_as_xyz
'x,y,z'

loop_
_atom_site_label
_atom_site_type_symbol
_atom_site_fract_x
_atom_site_fract_y
_atom_site_fract_z
Ni1	Ni	0.247400	0.376980	0.419715
O1	O	0.120650	0.174810	0.196450
O2	O	0.377450	0.066540	0.185100
O3	O	0.468450	0.176115	0.248650
O4	O	0.033250	0.059900	0.237100
N1	N	0.313950	0.421450	0.348100
N2	N	0.180550	0.323050	0.357550
C1	C	0.293900	0.479650	0.256700
H1	H	0.250100	0.493100	0.222050
C2	C	0.396600	0.499000	0.266850
C3	C	0.458550	0.477300	0.317700
H2	H	0.030100	0.488900	0.325250
C4	C	0.203850	0.259550	0.272050
H3	H	0.247550	0.245500	0.238900
C5	C	0.240150	0.301600	0.310850
H4	H	0.309550	0.315650	0.303950
C6	C	0.255750	0.440450	0.297500
H5	H	0.186050	0.426500	0.289550
C7	C	0.414250	0.438850	0.356850
C8	C	0.082250	0.302250	0.367300
C9	C	0.041300	0.260150	0.331300
H6	H	0.472300	0.246250	0.339550
C10	C	0.103950	0.238500	0.282300
C11	C	0.439000	0.044650	0.227500
C12	C	0.061000	0.193100	0.240750
Ni2	Ni	0.497400	0.123020	0.169715
O5	O	0.370650	0.325190	0.446450
O6	O	0.127450	0.433460	0.435100
O7	O	0.218450	0.323885	0.498650
O8	O	0.283250	0.440100	0.487100
N3	N	0.063950	0.078550	0.098100
N4	N	0.430550	0.176950	0.107550
C13	C	0.043900	0.020350	0.006700
H7	H	0.000100	0.006900	0.472050
C14	C	0.146600	0.001000	0.016850
C15	C	0.208550	0.022700	0.067700
H8	H	0.280100	0.011100	0.075250
C16	C	0.453850	0.240450	0.022050
H9	H	0.497550	0.254500	0.488900
C17	C	0.490150	0.198400	0.060850
C18	C	0.005750	0.059550	0.047500
C19	C	0.164250	0.061150	0.106850
H10	H	0.206650	0.075850	0.141300
C20	C	0.332250	0.197750	0.117300
C21	C	0.291300	0.239850	0.081300
H11	H	0.222300	0.253750	0.089550
C22	C	0.353950	0.261500	0.032300
C23	C	0.189000	0.455350	0.477500
C24	C	0.311000	0.306900	0.490750
Ni3	Ni	0.247400	0.376980	0.919715
O9	O	0.120650	0.174810	0.696450
O10	O	0.377450	0.066540	0.685100
O11	O	0.468450	0.176115	0.748650
O12	O	0.033250	0.059900	0.737100
N5	N	0.313950	0.421450	0.848100
N6	N	0.180550	0.323050	0.857550
C25	C	0.293900	0.479650	0.756700
H12	H	0.250100	0.493100	0.722050
C26	C	0.396600	0.499000	0.766850
C27	C	0.458550	0.477300	0.817700
H13	H	0.030100	0.488900	0.825250
C28	C	0.203850	0.259550	0.772050
H14	H	0.247550	0.245500	0.738900
C29	C	0.240150	0.301600	0.810850
C30	C	0.255750	0.440450	0.797500
H15	H	0.186050	0.426500	0.789550
C31	C	0.414250	0.438850	0.856850
C32	C	0.082250	0.302250	0.867300
H16	H	0.039650	0.317300	0.900350
C33	C	0.041300	0.260150	0.831300
H17	H	0.472300	0.246250	0.839550
C34	C	0.103950	0.238500	0.782300
C35	C	0.439000	0.044650	0.727500
C36	C	0.061000	0.193100	0.740750
Ni4	Ni	0.497400	0.123020	0.669715
O13	O	0.370650	0.325190	0.946450
O14	O	0.127450	0.433460	0.935100
O15	O	0.218450	0.323885	0.998650
O16	O	0.283250	0.440100	0.987100
N7	N	0.063950	0.078550	0.598100
N8	N	0.430550	0.176950	0.607550
C37	C	0.043900	0.020350	0.506700
H18	H	0.000100	0.006900	0.972050
C38	C	0.146600	0.001000	0.516850
C39	C	0.208550	0.022700	0.567700
H19	H	0.280100	0.011100	0.575250
C40	C	0.453850	0.240450	0.522050
H20	H	0.497550	0.254500	0.988900
C41	C	0.490150	0.198400	0.560850
H21	H	0.059550	0.184350	0.553950
C42	C	0.005750	0.059550	0.547500
H22	H	0.436050	0.073500	0.539550
C43	C	0.164250	0.061150	0.606850
C44	C	0.332250	0.197750	0.617300
C45	C	0.291300	0.239850	0.581300
H23	H	0.222300	0.253750	0.589550
C46	C	0.353950	0.261500	0.532300
C47	C	0.189000	0.455350	0.977500
C48	C	0.311000	0.306900	0.990750
Ni5	Ni	0.247400	0.876980	0.419715
O17	O	0.120650	0.674810	0.196450
O18	O	0.377450	0.566540	0.185100
O19	O	0.468450	0.676115	0.248650
O20	O	0.033250	0.559900	0.237100
N9	N	0.313950	0.921450	0.348100
N10	N	0.180550	0.823050	0.357550
C49	C	0.293900	0.979650	0.256700
H24	H	0.250100	0.993100	0.222050
C50	C	0.396600	0.999000	0.266850
C51	C	0.458550	0.977300	0.317700
H25	H	0.030100	0.988900	0.325250
C52	C	0.203850	0.759550	0.272050
H26	H	0.247550	0.745500	0.238900
C53	C	0.240150	0.801600	0.310850
H27	H	0.309550	0.815650	0.303950
C54	C	0.255750	0.940450	0.297500
C55	C	0.414250	0.938850	0.356850
H28	H	0.456650	0.924150	0.391300
C56	C	0.082250	0.802250	0.367300
C57	C	0.041300	0.760150	0.331300
H29	H	0.472300	0.746250	0.339550
C58	C	0.103950	0.738500	0.282300
C59	C	0.439000	0.544650	0.227500
C60	C	0.061000	0.693100	0.240750
Ni6	Ni	0.497400	0.623020	0.169715
O21	O	0.370650	0.825190	0.446450
O22	O	0.127450	0.933460	0.435100
O23	O	0.218450	0.823885	0.498650
O24	O	0.283250	0.940100	0.487100
N11	N	0.063950	0.578550	0.098100
N12	N	0.430550	0.676950	0.107550
C61	C	0.043900	0.520350	0.006700
H30	H	0.000100	0.506900	0.472050
C62	C	0.146600	0.501000	0.016850
C63	C	0.208550	0.522700	0.067700
H31	H	0.280100	0.511100	0.075250
C64	C	0.453850	0.740450	0.022050
H32	H	0.497550	0.754500	0.488900
C65	C	0.490150	0.698400	0.060850
H33	H	0.059550	0.684350	0.053950
C66	C	0.005750	0.559550	0.047500
C67	C	0.164250	0.561150	0.106850
C68	C	0.332250	0.697750	0.117300
H34	H	0.289650	0.682700	0.150350
C69	C	0.291300	0.739850	0.081300
H35	H	0.222300	0.753750	0.089550
C70	C	0.353950	0.761500	0.032300
C71	C	0.189000	0.955350	0.477500
C72	C	0.311000	0.806900	0.490750
Ni7	Ni	0.247400	0.876980	0.919715
O25	O	0.120650	0.674810	0.696450
O26	O	0.377450	0.566540	0.685100
O27	O	0.468450	0.676115	0.748650
O28	O	0.033250	0.559900	0.737100
N13	N	0.313950	0.921450	0.848100
N14	N	0.180550	0.823050	0.857550
C73	C	0.293900	0.979650	0.756700
H36	H	0.250100	0.993100	0.722050
C74	C	0.396600	0.999000	0.766850
C75	C	0.458550	0.977300	0.817700
H37	H	0.030100	0.988900	0.825250
C76	C	0.203850	0.759550	0.772050
H38	H	0.247550	0.745500	0.738900
C77	C	0.240150	0.801600	0.810850
C78	C	0.255750	0.940450	0.797500
H39	H	0.186050	0.926500	0.789550
C79	C	0.414250	0.938850	0.856850
C80	C	0.082250	0.802250	0.867300
H40	H	0.039650	0.817300	0.900350
C81	C	0.041300	0.760150	0.831300
H41	H	0.472300	0.746250	0.839550
C82	C	0.103950	0.738500	0.782300
C83	C	0.439000	0.544650	0.727500
C84	C	0.061000	0.693100	0.740750
Ni8	Ni	0.497400	0.623020	0.669715
O29	O	0.370650	0.825190	0.946450
O30	O	0.127450	0.933460	0.935100
O31	O	0.218450	0.823885	0.998650
O32	O	0.283250	0.940100	0.987100
N15	N	0.063950	0.578550	0.598100
N16	N	0.430550	0.676950	0.607550
C85	C	0.043900	0.520350	0.506700
H42	H	0.000100	0.506900	0.972050
C86	C	0.146600	0.501000	0.516850
C87	C	0.208550	0.522700	0.567700
H43	H	0.280100	0.511100	0.575250
C88	C	0.453850	0.740450	0.522050
H44	H	0.497550	0.754500	0.988900
C89	C	0.490150	0.698400	0.560850
H45	H	0.059550	0.684350	0.553950
C90	C	0.005750	0.559550	0.547500
H46	H	0.436050	0.573500	0.539550
C91	C	0.164250	0.561150	0.606850
C92	C	0.332250	0.697750	0.617300
H47	H	0.289650	0.682700	0.650350
C93	C	0.291300	0.739850	0.581300
H48	H	0.222300	0.753750	0.589550
C94	C	0.353950	0.761500	0.532300
C95	C	0.189000	0.955350	0.977500
C96	C	0.311000	0.806900	0.990750
Ni9	Ni	0.747400	0.376980	0.419715
O33	O	0.620650	0.174810	0.196450
O34	O	0.877450	0.066540	0.185100
O35	O	0.968450	0.176115	0.248650
O36	O	0.533250	0.059900	0.237100
N17	N	0.813950	0.421450	0.348100
N18	N	0.680550	0.323050	0.357550
C97	C	0.793900	0.479650	0.256700
H49	H	0.750100	0.493100	0.222050
C98	C	0.896600	0.499000	0.266850
C99	C	0.958550	0.477300	0.317700
H50	H	0.530100	0.488900	0.325250
C100	C	0.703850	0.259550	0.272050
H51	H	0.747550	0.245500	0.238900
C101	C	0.740150	0.301600	0.310850
C102	C	0.755750	0.440450	0.297500
C103	C	0.914250	0.438850	0.356850
H52	H	0.956650	0.424150	0.391300
C104	C	0.582250	0.302250	0.367300
H53	H	0.539650	0.317300	0.400350
C105	C	0.541300	0.260150	0.331300
H54	H	0.972300	0.246250	0.339550
C106	C	0.603950	0.238500	0.282300
C107	C	0.939000	0.044650	0.227500
C108	C	0.561000	0.193100	0.240750
Ni10	Ni	0.997400	0.123020	0.169715
O37	O	0.870650	0.325190	0.446450
O38	O	0.627450	0.433460	0.435100
O39	O	0.718450	0.323885	0.498650
O40	O	0.783250	0.440100	0.487100
N19	N	0.563950	0.078550	0.098100
N20	N	0.930550	0.176950	0.107550
C109	C	0.543900	0.020350	0.006700
H55	H	0.500100	0.006900	0.472050
C110	C	0.646600	0.001000	0.016850
C111	C	0.708550	0.022700	0.067700
H56	H	0.780100	0.011100	0.075250
C112	C	0.953850	0.240450	0.022050
H57	H	0.997550	0.254500	0.488900
C113	C	0.990150	0.198400	0.060850
H58	H	0.559550	0.184350	0.053950
C114	C	0.505750	0.059550	0.047500
C115	C	0.664250	0.061150	0.106850
H59	H	0.706650	0.075850	0.141300
C116	C	0.832250	0.197750	0.117300
H60	H	0.789650	0.182700	0.150350
C117	C	0.791300	0.239850	0.081300
H61	H	0.722300	0.253750	0.089550
C118	C	0.853950	0.261500	0.032300
C119	C	0.689000	0.455350	0.477500
C120	C	0.811000	0.306900	0.490750
Ni11	Ni	0.747400	0.376980	0.919715
O41	O	0.620650	0.174810	0.696450
O42	O	0.877450	0.066540	0.685100
O43	O	0.968450	0.176115	0.748650
O44	O	0.533250	0.059900	0.737100
N21	N	0.813950	0.421450	0.848100
N22	N	0.680550	0.323050	0.857550
C121	C	0.793900	0.479650	0.756700
H62	H	0.750100	0.493100	0.722050
C122	C	0.896600	0.499000	0.766850
C123	C	0.958550	0.477300	0.817700
H63	H	0.530100	0.488900	0.825250
C124	C	0.703850	0.259550	0.772050
H64	H	0.747550	0.245500	0.738900
C125	C	0.740150	0.301600	0.810850
C126	C	0.755750	0.440450	0.797500
H65	H	0.686050	0.426500	0.789550
C127	C	0.914250	0.438850	0.856850
C128	C	0.582250	0.302250	0.867300
H66	H	0.539650	0.317300	0.900350
C129	C	0.541300	0.260150	0.831300
H67	H	0.972300	0.246250	0.839550
C130	C	0.603950	0.238500	0.782300
C131	C	0.939000	0.044650	0.727500
C132	C	0.561000	0.193100	0.740750
Ni12	Ni	0.997400	0.123020	0.669715
O45	O	0.870650	0.325190	0.946450
O46	O	0.627450	0.433460	0.935100
O47	O	0.718450	0.323885	0.998650
O48	O	0.783250	0.440100	0.987100
N23	N	0.563950	0.078550	0.598100
N24	N	0.930550	0.176950	0.607550
C133	C	0.543900	0.020350	0.506700
H68	H	0.500100	0.006900	0.972050
C134	C	0.646600	0.001000	0.516850
C135	C	0.708550	0.022700	0.567700
H69	H	0.780100	0.011100	0.575250
C136	C	0.953850	0.240450	0.522050
H70	H	0.997550	0.254500	0.988900
C137	C	0.990150	0.198400	0.560850
H71	H	0.559550	0.184350	0.553950
C138	C	0.505750	0.059550	0.547500
H72	H	0.936050	0.073500	0.539550
C139	C	0.664250	0.061150	0.606850
C140	C	0.832250	0.197750	0.617300
C141	C	0.791300	0.239850	0.581300
H73	H	0.722300	0.253750	0.589550
C142	C	0.853950	0.261500	0.532300
C143	C	0.689000	0.455350	0.977500
C144	C	0.811000	0.306900	0.990750
Ni13	Ni	0.747400	0.876980	0.419715
O49	O	0.620650	0.674810	0.196450
O50	O	0.877450	0.566540	0.185100
O51	O	0.968450	0.676115	0.248650
O52	O	0.533250	0.559900	0.237100
N25	N	0.813950	0.921450	0.348100
N26	N	0.680550	0.823050	0.357550
C145	C	0.793900	0.979650	0.256700
H74	H	0.750100	0.993100	0.222050
C146	C	0.896600	0.999000	0.266850
C147	C	0.958550	0.977300	0.317700
H75	H	0.530100	0.988900	0.325250
C148	C	0.703850	0.759550	0.272050
H76	H	0.747550	0.745500	0.238900
C149	C	0.740150	0.801600	0.310850
C150	C	0.755750	0.940450	0.297500
C151	C	0.914250	0.938850	0.356850
H77	H	0.956650	0.924150	0.391300
C152	C	0.582250	0.802250	0.367300
H78	H	0.539650	0.817300	0.400350
C153	C	0.541300	0.760150	0.331300
H79	H	0.972300	0.746250	0.339550
C154	C	0.603950	0.738500	0.282300
C155	C	0.939000	0.544650	0.227500
C156	C	0.561000	0.693100	0.240750
Ni14	Ni	0.997400	0.623020	0.169715
O53	O	0.870650	0.825190	0.446450
O54	O	0.627450	0.933460	0.435100
O55	O	0.718450	0.823885	0.498650
O56	O	0.783250	0.940100	0.487100
N27	N	0.563950	0.578550	0.098100
N28	N	0.930550	0.676950	0.107550
C157	C	0.543900	0.520350	0.006700
H80	H	0.500100	0.506900	0.472050
C158	C	0.646600	0.501000	0.016850
C159	C	0.708550	0.522700	0.067700
H81	H	0.780100	0.511100	0.075250
C160	C	0.953850	0.740450	0.022050
H82	H	0.997550	0.754500	0.488900
C161	C	0.990150	0.698400	0.060850
C162	C	0.505750	0.559550	0.047500
H83	H	0.936050	0.573500	0.039550
C163	C	0.664250	0.561150	0.106850
H84	H	0.706650	0.575850	0.141300
C164	C	0.832250	0.697750	0.117300
C165	C	0.791300	0.739850	0.081300
H85	H	0.722300	0.753750	0.089550
C166	C	0.853950	0.761500	0.032300
C167	C	0.689000	0.955350	0.477500
C168	C	0.811000	0.806900	0.490750
Ni15	Ni	0.747400	0.876980	0.919715
O57	O	0.620650	0.674810	0.696450
O58	O	0.877450	0.566540	0.685100
O59	O	0.968450	0.676115	0.748650
O60	O	0.533250	0.559900	0.737100
N29	N	0.813950	0.921450	0.848100
N30	N	0.680550	0.823050	0.857550
C169	C	0.793900	0.979650	0.756700
H86	H	0.750100	0.993100	0.722050
C170	C	0.896600	0.999000	0.766850
C171	C	0.958550	0.977300	0.817700
H87	H	0.530100	0.988900	0.825250
C172	C	0.703850	0.759550	0.772050
H88	H	0.747550	0.745500	0.738900
C173	C	0.740150	0.801600	0.810850
H89	H	0.809550	0.815650	0.803950
C174	C	0.755750	0.940450	0.797500
C175	C	0.914250	0.938850	0.856850
H90	H	0.956650	0.924150	0.891300
C176	C	0.582250	0.802250	0.867300
C177	C	0.541300	0.760150	0.831300
H91	H	0.972300	0.746250	0.839550
C178	C	0.603950	0.738500	0.782300
C179	C	0.939000	0.544650	0.727500
C180	C	0.561000	0.693100	0.740750
Ni16	Ni	0.997400	0.623020	0.669715
O61	O	0.870650	0.825190	0.946450
O62	O	0.627450	0.933460	0.935100
O63	O	0.718450	0.823885	0.998650
O64	O	0.783250	0.940100	0.987100
N31	N	0.563950	0.578550	0.598100
N32	N	0.930550	0.676950	0.607550
C181	C	0.543900	0.520350	0.506700
H92	H	0.500100	0.506900	0.972050
C182	C	0.646600	0.501000	0.516850
C183	C	0.708550	0.522700	0.567700
H93	H	0.780100	0.511100	0.575250
C184	C	0.953850	0.740450	0.522050
H94	H	0.997550	0.754500	0.988900
C185	C	0.990150	0.698400	0.560850
C186	C	0.505750	0.559550	0.547500
H95	H	0.936050	0.573500	0.539550
C187	C	0.664250	0.561150	0.606850
C188	C	0.832250	0.697750	0.617300
C189	C	0.791300	0.739850	0.581300
H96	H	0.722300	0.753750	0.589550
C190	C	0.853950	0.761500	0.532300
C191	C	0.689000	0.955350	0.977500
C192	C	0.811000	0.806900	0.990750
O65	O	0.476579	0.417515	0.407236
H97	H	0.448832	0.390447	0.435931
O66	O	0.020182	0.324296	0.415608
H98	H	0.045570	0.353852	0.442067
O67	O	-0.095903	0.079805	0.035647
H99	H	-0.125687	0.107263	0.062995
O68	O	0.270182	0.175704	0.165608
H100	H	0.295570	0.146148	0.192067
O69	O	0.476579	0.417514	0.907236
H101	H	0.448832	0.390447	0.935931
O70	O	0.341510	0.321773	0.800549
H102	H	0.370018	0.351005	0.826393
O71	O	0.226579	0.082486	0.657236
H103	H	0.198832	0.109553	0.685931
O72	O	0.270182	0.175704	0.665608
H104	H	0.295570	0.146148	0.692067
O73	O	0.154097	0.920196	0.285647
H105	H	0.124313	0.892737	0.312995
O74	O	0.020182	0.824296	0.415608
H106	H	0.045570	0.853852	0.442067
O75	O	0.226579	0.582486	0.157236
H107	H	0.198832	0.609553	0.185931
O76	O	0.591510	0.678227	0.050549
H108	H	0.620018	0.648995	0.076393
O77	O	0.476579	0.917514	0.907236
H109	H	0.448832	0.890447	0.935931
O78	O	0.341509	0.821773	0.800548
H110	H	0.370018	0.851005	0.826393
O79	O	0.226579	0.582486	0.657236
H111	H	0.198832	0.609553	0.685931
O80	O	0.591510	0.678227	0.550549
H112	H	0.620018	0.648995	0.576393
O81	O	0.654097	0.420196	0.285647
H113	H	0.624313	0.392737	0.312995
O82	O	0.841510	0.321773	0.300549
H114	H	0.870018	0.351005	0.326393
O83	O	0.404097	0.079805	0.035647
H115	H	0.374313	0.107263	0.062995
O84	O	1.091509	0.178227	0.050548
H116	H	1.120018	0.148995	0.076393
O85	O	0.976579	0.417514	0.907236
H117	H	0.948832	0.390447	0.935931
O86	O	0.841509	0.321773	0.800548
H118	H	0.870018	0.351005	0.826393
O87	O	0.726579	0.082486	0.657236
H119	H	0.698832	0.109553	0.685931
O88	O	0.770182	0.175704	0.665608
H120	H	0.795570	0.146148	0.692067
O89	O	0.654097	0.920196	0.285647
H121	H	0.624313	0.892737	0.312995
O90	O	0.841510	0.821773	0.300549
H122	H	0.870018	0.851005	0.326393
O91	O	0.404097	0.579805	0.035647
H123	H	0.374313	0.607263	0.062995
O92	O	0.770182	0.675704	0.165608
H124	H	0.795570	0.646148	0.192067
O93	O	0.654097	0.920196	0.785647
H125	H	0.624313	0.892737	0.812995
O94	O	0.520182	0.824296	0.915608
H126	H	0.545570	0.853852	0.942067
O95	O	0.726579	0.582486	0.657236
H127	H	0.698832	0.609553	0.685931
O96	O	0.770182	0.675704	0.665608
H128	H	0.795570	0.646148	0.692067

loop_
_geom_bond_atom_site_label_1
_geom_bond_atom_site_label_2
_geom_bond_distance
Ni1	N1	0.10740
Ni1	N2	0.10603
Ni1	O5	0.13634
Ni1	O6	0.13347
Ni1	O7	0.09944
Ni1	O8	0.09905
O1	C12	0.07652
O1	Ni10	0.13634
O2	C11	0.07788
O2	Ni2	0.13347
O3	Ni2	0.09944
O3	C108	0.09443
O4	C107	0.09596
O4	Ni10	0.09905
N1	C6	0.07943
N1	C7	0.10217
N2	C5	0.07870
N2	C8	0.10095
C1	H1	0.05745
C1	C2	0.10500
C1	C6	0.06824
C2	C3	0.08303
C2	C59	0.07369
C3	C7	0.07052
C3	H50	0.07288
H2	C99	0.07288
C4	H3	0.05662
C4	C5	0.06776
C4	C10	0.10261
C5	H4	0.07114
C6	H5	0.07153
C7	O65	0.08294
C8	C9	0.06889
C8	O66	0.08168
C9	C10	0.08243
C9	H54	0.07087
H6	C105	0.07087
C10	C12	0.07505
C11	C50	0.07369
C11	O36	0.09596
C12	O35	0.09443
Ni2	N4	0.10603
Ni2	O33	0.13634
Ni2	O36	0.09905
Ni2	N19	0.10740
O5	C24	0.07652
O6	C23	0.07788
O7	C24	0.09443
O8	C23	0.09596
N3	C18	0.07943
N3	C19	0.10217
N3	Ni10	0.10740
N4	C17	0.07870
N4	C20	0.10095
C13	C14	0.10500
C13	C18	0.06824
C13	H18	0.05745
H7	C37	0.05745
C14	C15	0.08303
C14	C95	0.07369
C15	H8	0.07288
C15	C19	0.07052
C16	C17	0.06776
C16	C22	0.10261
C16	H20	0.05662
H9	C40	0.05662
C17	H58	0.07114
C18	O67	0.10433
C19	H10	0.05657
C20	C21	0.06889
C20	O68	0.08168
C21	H11	0.07087
C21	C22	0.08243
C22	C48	0.07505
C23	C86	0.07369
C24	C46	0.07505
Ni3	N5	0.10740
Ni3	N6	0.10603
Ni3	O13	0.13634
Ni3	O14	0.13347
Ni3	O15	0.09944
Ni3	O16	0.09905
O9	C36	0.07652
O9	Ni12	0.13634
O10	C35	0.07788
O10	Ni4	0.13347
O11	Ni4	0.09944
O11	C132	0.09443
O12	C131	0.09596
O12	Ni12	0.09905
N5	C30	0.07943
N5	C31	0.10217
N6	C29	0.07870
N6	C32	0.10095
C25	H12	0.05745
C25	C26	0.10500
C25	C30	0.06824
C26	C27	0.08303
C26	C83	0.07369
C27	C31	0.07052
C27	H63	0.07288
H13	C123	0.07288
C28	H14	0.05662
C28	C29	0.06776
C28	C34	0.10261
C29	O70	0.10386
C30	H15	0.07153
C31	O69	0.08294
C32	H16	0.05598
C32	C33	0.06889
C33	C34	0.08243
C33	H67	0.07087
H17	C129	0.07087
C34	C36	0.07505
C35	C74	0.07369
C35	O44	0.09596
C36	O43	0.09443
Ni4	N8	0.10603
Ni4	O41	0.13634
Ni4	O44	0.09905
Ni4	N23	0.10740
O13	C48	0.07652
O14	C47	0.07788
O15	C48	0.09443
O16	C47	0.09596
N7	C42	0.07943
N7	C43	0.10217
N7	Ni12	0.10740
N8	C41	0.07870
N8	C44	0.10095
C37	C38	0.10500
C37	C42	0.06824
C38	C39	0.08303
C38	C71	0.07369
C39	H19	0.07288
C39	C43	0.07052
C40	C41	0.06776
C40	C46	0.10261
C41	H71	0.07114
H21	C137	0.07114
C42	H72	0.07153
H22	C138	0.07153
C43	O71	0.08294
C44	C45	0.06889
C44	O72	0.08168
C45	H23	0.07087
C45	C46	0.08243
C47	C62	0.07369
Ni5	N9	0.10740
Ni5	N10	0.10603
Ni5	O21	0.13634
Ni5	O22	0.13347
Ni5	O23	0.09944
Ni5	O24	0.09905
O17	C60	0.07652
O17	Ni14	0.13634
O18	C59	0.07788
O18	Ni6	0.13347
O19	Ni6	0.09944
O19	C156	0.09443
O20	C155	0.09596
O20	Ni14	0.09905
N9	C54	0.07943
N9	C55	0.10217
N10	C53	0.07870
N10	C56	0.10095
C49	H24	0.05745
C49	C50	0.10500
C49	C54	0.06824
C50	C51	0.08303
C51	C55	0.07052
C51	H75	0.07288
H25	C147	0.07288
C52	H26	0.05662
C52	C53	0.06776
C52	C58	0.10261
C53	H27	0.07114
C54	O73	0.10433
C55	H28	0.05657
C56	C57	0.06889
C56	O74	0.08168
C57	C58	0.08243
C57	H79	0.07087
H29	C153	0.07087
C58	C60	0.07505
C59	O52	0.09596
C60	O51	0.09443
Ni6	N12	0.10603
Ni6	O49	0.13634
Ni6	O52	0.09905
Ni6	N27	0.10740
O21	C72	0.07652
O22	C71	0.07788
O23	C72	0.09443
O24	C71	0.09596
N11	C66	0.07943
N11	C67	0.10217
N11	Ni14	0.10740
N12	C65	0.07870
N12	C68	0.10095
C61	C62	0.10500
C61	C66	0.06824
C61	H42	0.05745
H30	C85	0.05745
C62	C63	0.08303
C63	H31	0.07288
C63	C67	0.07052
C64	C65	0.06776
C64	C70	0.10261
C64	H44	0.05662
H32	C88	0.05662
C65	O76	0.10386
H33	C161	0.07114
C66	H83	0.07153
C67	O75	0.08294
C68	H34	0.05598
C68	C69	0.06889
C69	H35	0.07087
C69	C70	0.08243
C70	C96	0.07505
C72	C94	0.07505
Ni7	N13	0.10740
Ni7	N14	0.10603
Ni7	O29	0.13634
Ni7	O30	0.13347
Ni7	O31	0.09944
Ni7	O32	0.09905
O25	C84	0.07652
O25	Ni16	0.13634
O26	C83	0.07788
O26	Ni8	0.13347
O27	Ni8	0.09944
O27	C180	0.09443
O28	C179	0.09596
O28	Ni16	0.09905
N13	C78	0.07943
N13	C79	0.10217
N14	C77	0.07870
N14	C80	0.10095
C73	H36	0.05745
C73	C74	0.10500
C73	C78	0.06824
C74	C75	0.08303
C75	C79	0.07052
C75	H87	0.07288
H37	C171	0.07288
C76	H38	0.05662
C76	C77	0.06776
C76	C82	0.10261
C77	O78	0.10386
C78	H39	0.07153
C79	O77	0.08294
C80	H40	0.05598
C80	C81	0.06889
C81	C82	0.08243
C81	H91	0.07087
H41	C177	0.07087
C82	C84	0.07505
C83	O60	0.09596
C84	O59	0.09443
Ni8	N16	0.10603
Ni8	O57	0.13634
Ni8	O60	0.09905
Ni8	N31	0.10740
O29	C96	0.07652
O30	C95	0.07788
O31	C96	0.09443
O32	C95	0.09596
N15	C90	0.07943
N15	C91	0.10217
N15	Ni16	0.10740
N16	C89	0.07870
N16	C92	0.10095
C85	C86	0.10500
C85	C90	0.06824
C86	C87	0.08303
C87	H43	0.07288
C87	C91	0.07052
C88	C89	0.06776
C88	C94	0.10261
C89	O80	0.10386
H45	C185	0.07114
C90	H95	0.07153
H46	C186	0.07153
C91	O79	0.08294
C92	H47	0.05598
C92	C93	0.06889
C93	H48	0.07087
C93	C94	0.08243
Ni9	N17	0.10740
Ni9	N18	0.10603
Ni9	O37	0.13634
Ni9	O38	0.13347
Ni9	O39	0.09944
Ni9	O40	0.09905
O33	C108	0.07652
O34	C107	0.07788
O34	Ni10	0.13347
O35	Ni10	0.09944
N17	C102	0.07943
N17	C103	0.10217
N18	C101	0.07870
N18	C104	0.10095
C97	H49	0.05745
C97	C98	0.10500
C97	C102	0.06824
C98	C99	0.08303
C98	C155	0.07369
C99	C103	0.07052
C100	H51	0.05662
C100	C101	0.06776
C100	C106	0.10261
C101	O82	0.10386
C102	O81	0.10433
C103	H52	0.05657
C104	H53	0.05598
C104	C105	0.06889
C105	C106	0.08243
C106	C108	0.07505
C107	C146	0.07369
Ni10	N20	0.10603
O37	C120	0.07652
O38	C119	0.07788
O39	C120	0.09443
O40	C119	0.09596
N19	C114	0.07943
N19	C115	0.10217
N20	C113	0.07870
N20	C116	0.10095
C109	C110	0.10500
C109	C114	0.06824
C109	H68	0.05745
H55	C133	0.05745
C110	C111	0.08303
C110	C191	0.07369
C111	H56	0.07288
C111	C115	0.07052
C112	C113	0.06776
C112	C118	0.10261
C112	H70	0.05662
H57	C136	0.05662
C113	O84	0.10386
C114	O83	0.10433
C115	H59	0.05657
C116	H60	0.05598
C116	C117	0.06889
C117	H61	0.07087
C117	C118	0.08243
C118	C144	0.07505
C119	C182	0.07369
C120	C142	0.07505
Ni11	N21	0.10740
Ni11	N22	0.10603
Ni11	O45	0.13634
Ni11	O46	0.13347
Ni11	O47	0.09944
Ni11	O48	0.09905
O41	C132	0.07652
O42	C131	0.07788
O42	Ni12	0.13347
O43	Ni12	0.09944
N21	C126	0.07943
N21	C127	0.10217
N22	C125	0.07870
N22	C128	0.10095
C121	H62	0.05745
C121	C122	0.10500
C121	C126	0.06824
C122	C123	0.08303
C122	C179	0.07369
C123	C127	0.07052
C124	H64	0.05662
C124	C125	0.06776
C124	C130	0.10261
C125	O86	0.10386
C126	H65	0.07153
C127	O85	0.08294
C128	H66	0.05598
C128	C129	0.06889
C129	C130	0.08243
C130	C132	0.07505
C131	C170	0.07369
Ni12	N24	0.10603
O45	C144	0.07652
O46	C143	0.07788
O47	C144	0.09443
O48	C143	0.09596
N23	C138	0.07943
N23	C139	0.10217
N24	C137	0.07870
N24	C140	0.10095
C133	C134	0.10500
C133	C138	0.06824
C134	C135	0.08303
C134	C167	0.07369
C135	H69	0.07288
C135	C139	0.07052
C136	C137	0.06776
C136	C142	0.10261
C139	O87	0.08294
C140	C141	0.06889
C140	O88	0.08168
C141	H73	0.07087
C141	C142	0.08243
C143	C158	0.07369
Ni13	N25	0.10740
Ni13	N26	0.10603
Ni13	O53	0.13634
Ni13	O54	0.13347
Ni13	O55	0.09944
Ni13	O56	0.09905
O49	C156	0.07652
O50	C155	0.07788
O50	Ni14	0.13347
O51	Ni14	0.09944
N25	C150	0.07943
N25	C151	0.10217
N26	C149	0.07870
N26	C152	0.10095
C145	H74	0.05745
C145	C146	0.10500
C145	C150	0.06824
C146	C147	0.08303
C147	C151	0.07052
C148	H76	0.05662
C148	C149	0.06776
C148	C154	0.10261
C149	O90	0.10386
C150	O89	0.10433
C151	H77	0.05657
C152	H78	0.05598
C152	C153	0.06889
C153	C154	0.08243
C154	C156	0.07505
Ni14	N28	0.10603
O53	C168	0.07652
O54	C167	0.07788
O55	C168	0.09443
O56	C167	0.09596
N27	C162	0.07943
N27	C163	0.10217
N28	C161	0.07870
N28	C164	0.10095
C157	C158	0.10500
C157	C162	0.06824
C157	H92	0.05745
H80	C181	0.05745
C158	C159	0.08303
C159	H81	0.07288
C159	C163	0.07052
C160	C161	0.06776
C160	C166	0.10261
C160	H94	0.05662
H82	C184	0.05662
C162	O91	0.10433
C163	H84	0.05657
C164	C165	0.06889
C164	O92	0.08168
C165	H85	0.07087
C165	C166	0.08243
C166	C192	0.07505
C168	C190	0.07505
Ni15	N29	0.10740
Ni15	N30	0.10603
Ni15	O61	0.13634
Ni15	O62	0.13347
Ni15	O63	0.09944
Ni15	O64	0.09905
O57	C180	0.07652
O58	C179	0.07788
O58	Ni16	0.13347
O59	Ni16	0.09944
N29	C174	0.07943
N29	C175	0.10217
N30	C173	0.07870
N30	C176	0.10095
C169	H86	0.05745
C169	C170	0.10500
C169	C174	0.06824
C170	C171	0.08303
C171	C175	0.07052
C172	H88	0.05662
C172	C173	0.06776
C172	C178	0.10261
C173	H89	0.07114
C174	O93	0.10433
C175	H90	0.05657
C176	C177	0.06889
C176	O94	0.08168
C177	C178	0.08243
C178	C180	0.07505
Ni16	N32	0.10603
O61	C192	0.07652
O62	C191	0.07788
O63	C192	0.09443
O64	C191	0.09596
N31	C186	0.07943
N31	C187	0.10217
N32	C185	0.07870
N32	C188	0.10095
C181	C182	0.10500
C181	C186	0.06824
C182	C183	0.08303
C183	H93	0.07288
C183	C187	0.07052
C184	C185	0.06776
C184	C190	0.10261
C187	O95	0.08294
C188	C189	0.06889
C188	O96	0.08168
C189	H96	0.07087
C189	C190	0.08243
O65	H97	0.04823
O66	H98	0.04710
O67	H99	0.04888
O68	H100	0.04710
O69	H101	0.04823
O70	H102	0.04832
O71	H103	0.04823
O72	H104	0.04710
O73	H105	0.04888
O74	H106	0.04710
O75	H107	0.04823
O76	H108	0.04832
O77	H109	0.04823
O78	H110	0.04832
O79	H111	0.04823
O80	H112	0.04832
O81	H113	0.04888
O82	H114	0.04832
O83	H115	0.04888
O84	H116	0.04832
O85	H117	0.04823
O86	H118	0.04832
O87	H119	0.04823
O88	H120	0.04710
O89	H121	0.04888
O90	H122	0.04832
O91	H123	0.04888
O92	H124	0.04710
O93	H125	0.04888
O94	H126	0.04710
O95	H127	0.04823
O96	H128	0.04710
