data_linker2MOF5
_audit_creation_date              Wednesday 20 February 2019        
_audit_creation_method            Lammps Interface v.0              
_symmetry_space_group_name_H-M    P1                                
_symmetry_Int_Tables_number       1                                 
_symmetry_cell_setting            triclinic                         
loop_
_symmetry_equiv_pos_as_xyz        
'x, y, z'                         
_cell_length_a                    25.8320 
_cell_length_b                    25.8320 
_cell_length_c                    25.8320 
_cell_angle_alpha                 90.0000 
_cell_angle_beta                  90.0000 
_cell_angle_gamma                 90.0000 
loop_
_atom_site_label                  
_atom_site_type_symbol            
_atom_site_fract_x                
_atom_site_fract_y                
_atom_site_fract_z                
_atom_site_charge                 
C_R     C         0.61130    0.75000    0.25000    0.00000 
C_R     C         0.38870    0.75000    0.25000    0.00000 
C_R     C         0.55380    0.75000    0.25000    0.00000 
C_R     C         0.44620    0.75000    0.25000    0.00000 
C_R     C         0.52690    0.71710    0.28290    0.00000 
C_R     C         0.47310    0.78290    0.21710    0.00000 
C_R     C         0.47310    0.71710    0.28290    0.00000 
C_R     C         0.52690    0.78290    0.21710    0.00000 
H_      H         0.45520    0.69510    0.30490    0.00000 
H_      H         0.54480    0.80490    0.19510    0.00000 
S_3+6   S         0.56170    0.67440    0.32560    0.00000 
C_3     C         0.58180    0.70700    0.36350    0.00000 
C_3     C         0.55570    0.75830    0.35990    0.00000 
S_3+6   S         0.50020    0.75020    0.39860    0.00000 
C_3     C         0.45590    0.78280    0.37280    0.00000 
S_3+6   S         0.43830    0.82560    0.17440    0.00000 
C_3     C         0.41820    0.79850    0.13200    0.00000 
C_3     C         0.44110    0.74650    0.14120    0.00000 
S_3+6   S         0.49960    0.72220    0.16120    0.00000 
C_3     C         0.50880    0.65330    0.16640    0.00000 
H_      H         0.44900    0.76870    0.33370    0.00000 
H_      H         0.42060    0.77900    0.39550    0.00000 
H_      H         0.46730    0.82340    0.37130    0.00000 
H_      H         0.54520    0.76720    0.32000    0.00000 
H_      H         0.58040    0.78890    0.37510    0.00000 
H_      H         0.50270    0.63540    0.12870    0.00000 
H_      H         0.54800    0.64530    0.17960    0.00000 
H_      H         0.48120    0.63750    0.19410    0.00000 
H_      H         0.41350    0.71570    0.13310    0.00000 
H_      H         0.39290    0.81180    0.10100    0.00000 
H_      H         0.62330    0.71180    0.35750    0.00000 
H_      H         0.57490    0.69030    0.40160    0.00000 
H_      H         0.42790    0.74780    0.18120    0.00000 
H_      H         0.45190    0.80930    0.10910    0.00000 
C_R     C         0.61130    0.75000   -0.25000    0.00000 
C_R     C         0.38870    0.75000   -0.25000    0.00000 
C_R     C         0.55380    0.75000   -0.25000    0.00000 
C_R     C         0.44620    0.75000   -0.25000    0.00000 
C_R     C         0.52690    0.71710   -0.21710    0.00000 
C_R     C         0.47310    0.78290   -0.28290    0.00000 
C_R     C         0.47310    0.71710   -0.21710    0.00000 
C_R     C         0.52690    0.78290   -0.28290    0.00000 
H_      H         0.45520    0.69510   -0.19510    0.00000 
H_      H         0.54480    0.80490   -0.30490    0.00000 
S_3+6   S         0.56170    0.67440   -0.17440    0.00000 
C_3     C         0.58180    0.70700   -0.13650    0.00000 
C_3     C         0.55570    0.75830   -0.14010    0.00000 
S_3+6   S         0.50020    0.75020   -0.10140    0.00000 
C_3     C         0.45590    0.78280   -0.12720    0.00000 
S_3+6   S         0.43830    0.82560   -0.32560    0.00000 
C_3     C         0.41820    0.79850   -0.36800    0.00000 
C_3     C         0.44110    0.74650   -0.35880    0.00000 
S_3+6   S         0.49960    0.72220   -0.33880    0.00000 
C_3     C         0.50880    0.65330   -0.33360    0.00000 
H_      H         0.44900    0.76870   -0.16630    0.00000 
H_      H         0.42060    0.77900   -0.10450    0.00000 
H_      H         0.46730    0.82340   -0.12870    0.00000 
H_      H         0.54520    0.76720   -0.18000    0.00000 
H_      H         0.58040    0.78890   -0.12490    0.00000 
H_      H         0.50270    0.63540   -0.37130    0.00000 
H_      H         0.54800    0.64530   -0.32040    0.00000 
H_      H         0.48120    0.63750   -0.30590    0.00000 
H_      H         0.41350    0.71570   -0.36690    0.00000 
H_      H         0.39290    0.81180   -0.39900    0.00000 
H_      H         0.62330    0.71180   -0.14250    0.00000 
H_      H         0.57490    0.69030   -0.09840    0.00000 
H_      H         0.42790    0.74780   -0.31880    0.00000 
H_      H         0.45190    0.80930   -0.39090    0.00000 
C_R     C         0.61130    0.25000    0.25000    0.00000 
C_R     C         0.38870    0.25000    0.25000    0.00000 
C_R     C         0.55380    0.25000    0.25000    0.00000 
C_R     C         0.44620    0.25000    0.25000    0.00000 
C_R     C         0.52690    0.21710    0.28290    0.00000 
C_R     C         0.47310    0.28290    0.21710    0.00000 
C_R     C         0.47310    0.21710    0.28290    0.00000 
C_R     C         0.52690    0.28290    0.21710    0.00000 
H_      H         0.45520    0.19510    0.30490    0.00000 
H_      H         0.54480    0.30490    0.19510    0.00000 
S_3+6   S         0.56170    0.17440    0.32560    0.00000 
C_3     C         0.58180    0.20700    0.36350    0.00000 
C_3     C         0.55570    0.25830    0.35990    0.00000 
S_3+6   S         0.50020    0.25020    0.39860    0.00000 
C_3     C         0.45590    0.28280    0.37280    0.00000 
S_3+6   S         0.43830    0.32560    0.17440    0.00000 
C_3     C         0.41820    0.29850    0.13200    0.00000 
C_3     C         0.44110    0.24650    0.14120    0.00000 
S_3+6   S         0.49960    0.22220    0.16120    0.00000 
C_3     C         0.50880    0.15330    0.16640    0.00000 
H_      H         0.44900    0.26870    0.33370    0.00000 
H_      H         0.42060    0.27900    0.39550    0.00000 
H_      H         0.46730    0.32340    0.37130    0.00000 
H_      H         0.54520    0.26720    0.32000    0.00000 
H_      H         0.58040    0.28890    0.37510    0.00000 
H_      H         0.50270    0.13540    0.12870    0.00000 
H_      H         0.54800    0.14530    0.17960    0.00000 
H_      H         0.48120    0.13750    0.19410    0.00000 
H_      H         0.41350    0.21570    0.13310    0.00000 
H_      H         0.39290    0.31180    0.10100    0.00000 
H_      H         0.62330    0.21180    0.35750    0.00000 
H_      H         0.57490    0.19030    0.40160    0.00000 
H_      H         0.42790    0.24780    0.18120    0.00000 
H_      H         0.45190    0.30930    0.10910    0.00000 
C_R     C         0.61130    0.25000   -0.25000    0.00000 
C_R     C         0.38870    0.25000   -0.25000    0.00000 
C_R     C         0.55380    0.25000   -0.25000    0.00000 
C_R     C         0.44620    0.25000   -0.25000    0.00000 
C_R     C         0.52690    0.21710   -0.21710    0.00000 
C_R     C         0.47310    0.28290   -0.28290    0.00000 
C_R     C         0.47310    0.21710   -0.21710    0.00000 
C_R     C         0.52690    0.28290   -0.28290    0.00000 
H_      H         0.45520    0.19510   -0.19510    0.00000 
H_      H         0.54480    0.30490   -0.30490    0.00000 
S_3+6   S         0.56170    0.17440   -0.17440    0.00000 
C_3     C         0.58180    0.20700   -0.13650    0.00000 
C_3     C         0.55570    0.25830   -0.14010    0.00000 
S_3+6   S         0.50020    0.25020   -0.10140    0.00000 
C_3     C         0.45590    0.28280   -0.12720    0.00000 
S_3+6   S         0.43830    0.32560   -0.32560    0.00000 
C_3     C         0.41820    0.29850   -0.36800    0.00000 
C_3     C         0.44110    0.24650   -0.35880    0.00000 
S_3+6   S         0.49960    0.22220   -0.33880    0.00000 
C_3     C         0.50880    0.15330   -0.33360    0.00000 
H_      H         0.44900    0.26870   -0.16630    0.00000 
H_      H         0.42060    0.27900   -0.10450    0.00000 
H_      H         0.46730    0.32340   -0.12870    0.00000 
H_      H         0.54520    0.26720   -0.18000    0.00000 
H_      H         0.58040    0.28890   -0.12490    0.00000 
H_      H         0.50270    0.13540   -0.37130    0.00000 
H_      H         0.54800    0.14530   -0.32040    0.00000 
H_      H         0.48120    0.13750   -0.30590    0.00000 
H_      H         0.41350    0.21570   -0.36690    0.00000 
H_      H         0.39290    0.31180   -0.39900    0.00000 
H_      H         0.62330    0.21180   -0.14250    0.00000 
H_      H         0.57490    0.19030   -0.09840    0.00000 
H_      H         0.42790    0.24780   -0.31880    0.00000 
H_      H         0.45190    0.30930   -0.39090    0.00000 
C_R     C         0.11130    0.75000    0.25000    0.00000 
C_R     C        -0.11130    0.75000    0.25000    0.00000 
C_R     C         0.05380    0.75000    0.25000    0.00000 
C_R     C        -0.05380    0.75000    0.25000    0.00000 
C_R     C         0.02690    0.71710    0.28290    0.00000 
C_R     C        -0.02690    0.78290    0.21710    0.00000 
C_R     C        -0.02690    0.71710    0.28290    0.00000 
C_R     C         0.02690    0.78290    0.21710    0.00000 
H_      H        -0.04480    0.69510    0.30490    0.00000 
H_      H         0.04480    0.80490    0.19510    0.00000 
S_3+6   S         0.06170    0.67440    0.32560    0.00000 
C_3     C         0.08180    0.70700    0.36350    0.00000 
C_3     C         0.05570    0.75830    0.35990    0.00000 
S_3+6   S         0.00020    0.75020    0.39860    0.00000 
C_3     C        -0.04410    0.78280    0.37280    0.00000 
S_3+6   S        -0.06170    0.82560    0.17440    0.00000 
C_3     C        -0.08180    0.79850    0.13200    0.00000 
C_3     C        -0.05890    0.74650    0.14120    0.00000 
S_3+6   S        -0.00040    0.72220    0.16120    0.00000 
C_3     C         0.00880    0.65330    0.16640    0.00000 
H_      H        -0.05100    0.76870    0.33370    0.00000 
H_      H        -0.07940    0.77900    0.39550    0.00000 
H_      H        -0.03270    0.82340    0.37130    0.00000 
H_      H         0.04520    0.76720    0.32000    0.00000 
H_      H         0.08040    0.78890    0.37510    0.00000 
H_      H         0.00270    0.63540    0.12870    0.00000 
H_      H         0.04800    0.64530    0.17960    0.00000 
H_      H        -0.01880    0.63750    0.19410    0.00000 
H_      H        -0.08650    0.71570    0.13310    0.00000 
H_      H        -0.10710    0.81180    0.10100    0.00000 
H_      H         0.12330    0.71180    0.35750    0.00000 
H_      H         0.07490    0.69030    0.40160    0.00000 
H_      H        -0.07210    0.74780    0.18120    0.00000 
H_      H        -0.04810    0.80930    0.10910    0.00000 
C_R     C         0.11130    0.75000   -0.25000    0.00000 
C_R     C        -0.11130    0.75000   -0.25000    0.00000 
C_R     C         0.05380    0.75000   -0.25000    0.00000 
C_R     C        -0.05380    0.75000   -0.25000    0.00000 
C_R     C         0.02690    0.71710   -0.21710    0.00000 
C_R     C        -0.02690    0.78290   -0.28290    0.00000 
C_R     C        -0.02690    0.71710   -0.21710    0.00000 
C_R     C         0.02690    0.78290   -0.28290    0.00000 
H_      H        -0.04480    0.69510   -0.19510    0.00000 
H_      H         0.04480    0.80490   -0.30490    0.00000 
S_3+6   S         0.06170    0.67440   -0.17440    0.00000 
C_3     C         0.08180    0.70700   -0.13650    0.00000 
C_3     C         0.05570    0.75830   -0.14010    0.00000 
S_3+6   S         0.00020    0.75020   -0.10140    0.00000 
C_3     C        -0.04410    0.78280   -0.12720    0.00000 
S_3+6   S        -0.06170    0.82560   -0.32560    0.00000 
C_3     C        -0.08180    0.79850   -0.36800    0.00000 
C_3     C        -0.05890    0.74650   -0.35880    0.00000 
S_3+6   S        -0.00040    0.72220   -0.33880    0.00000 
C_3     C         0.00880    0.65330   -0.33360    0.00000 
H_      H        -0.05100    0.76870   -0.16630    0.00000 
H_      H        -0.07940    0.77900   -0.10450    0.00000 
H_      H        -0.03270    0.82340   -0.12870    0.00000 
H_      H         0.04520    0.76720   -0.18000    0.00000 
H_      H         0.08040    0.78890   -0.12490    0.00000 
H_      H         0.00270    0.63540   -0.37130    0.00000 
H_      H         0.04800    0.64530   -0.32040    0.00000 
H_      H        -0.01880    0.63750   -0.30590    0.00000 
H_      H        -0.08650    0.71570   -0.36690    0.00000 
H_      H        -0.10710    0.81180   -0.39900    0.00000 
H_      H         0.12330    0.71180   -0.14250    0.00000 
H_      H         0.07490    0.69030   -0.09840    0.00000 
H_      H        -0.07210    0.74780   -0.31880    0.00000 
H_      H        -0.04810    0.80930   -0.39090    0.00000 
C_R     C         0.11130    0.25000    0.25000    0.00000 
C_R     C        -0.11130    0.25000    0.25000    0.00000 
C_R     C         0.05380    0.25000    0.25000    0.00000 
C_R     C        -0.05380    0.25000    0.25000    0.00000 
C_R     C         0.02690    0.21710    0.28290    0.00000 
C_R     C        -0.02690    0.28290    0.21710    0.00000 
C_R     C        -0.02690    0.21710    0.28290    0.00000 
C_R     C         0.02690    0.28290    0.21710    0.00000 
H_      H        -0.04480    0.19510    0.30490    0.00000 
H_      H         0.04480    0.30490    0.19510    0.00000 
S_3+6   S         0.06170    0.17440    0.32560    0.00000 
C_3     C         0.08180    0.20700    0.36350    0.00000 
C_3     C         0.05570    0.25830    0.35990    0.00000 
S_3+6   S         0.00020    0.25020    0.39860    0.00000 
C_3     C        -0.04410    0.28280    0.37280    0.00000 
S_3+6   S        -0.06170    0.32560    0.17440    0.00000 
C_3     C        -0.08180    0.29850    0.13200    0.00000 
C_3     C        -0.05890    0.24650    0.14120    0.00000 
S_3+6   S        -0.00040    0.22220    0.16120    0.00000 
C_3     C         0.00880    0.15330    0.16640    0.00000 
H_      H        -0.05100    0.26870    0.33370    0.00000 
H_      H        -0.07940    0.27900    0.39550    0.00000 
H_      H        -0.03270    0.32340    0.37130    0.00000 
H_      H         0.04520    0.26720    0.32000    0.00000 
H_      H         0.08040    0.28890    0.37510    0.00000 
H_      H         0.00270    0.13540    0.12870    0.00000 
H_      H         0.04800    0.14530    0.17960    0.00000 
H_      H        -0.01880    0.13750    0.19410    0.00000 
H_      H        -0.08650    0.21570    0.13310    0.00000 
H_      H        -0.10710    0.31180    0.10100    0.00000 
H_      H         0.12330    0.21180    0.35750    0.00000 
H_      H         0.07490    0.19030    0.40160    0.00000 
H_      H        -0.07210    0.24780    0.18120    0.00000 
H_      H        -0.04810    0.30930    0.10910    0.00000 
C_R     C         0.11130    0.25000   -0.25000    0.00000 
C_R     C        -0.11130    0.25000   -0.25000    0.00000 
C_R     C         0.05380    0.25000   -0.25000    0.00000 
C_R     C        -0.05380    0.25000   -0.25000    0.00000 
C_R     C         0.02690    0.21710   -0.21710    0.00000 
C_R     C        -0.02690    0.28290   -0.28290    0.00000 
C_R     C        -0.02690    0.21710   -0.21710    0.00000 
C_R     C         0.02690    0.28290   -0.28290    0.00000 
H_      H        -0.04480    0.19510   -0.19510    0.00000 
H_      H         0.04480    0.30490   -0.30490    0.00000 
S_3+6   S         0.06170    0.17440   -0.17440    0.00000 
C_3     C         0.08180    0.20700   -0.13650    0.00000 
C_3     C         0.05570    0.25830   -0.14010    0.00000 
S_3+6   S         0.00020    0.25020   -0.10140    0.00000 
C_3     C        -0.04410    0.28280   -0.12720    0.00000 
S_3+6   S        -0.06170    0.32560   -0.32560    0.00000 
C_3     C        -0.08180    0.29850   -0.36800    0.00000 
C_3     C        -0.05890    0.24650   -0.35880    0.00000 
S_3+6   S        -0.00040    0.22220   -0.33880    0.00000 
C_3     C         0.00880    0.15330   -0.33360    0.00000 
H_      H        -0.05100    0.26870   -0.16630    0.00000 
H_      H        -0.07940    0.27900   -0.10450    0.00000 
H_      H        -0.03270    0.32340   -0.12870    0.00000 
H_      H         0.04520    0.26720   -0.18000    0.00000 
H_      H         0.08040    0.28890   -0.12490    0.00000 
H_      H         0.00270    0.13540   -0.37130    0.00000 
H_      H         0.04800    0.14530   -0.32040    0.00000 
H_      H        -0.01880    0.13750   -0.30590    0.00000 
H_      H        -0.08650    0.21570   -0.36690    0.00000 
H_      H        -0.10710    0.31180   -0.39900    0.00000 
H_      H         0.12330    0.21180   -0.14250    0.00000 
H_      H         0.07490    0.19030   -0.09840    0.00000 
H_      H        -0.07210    0.24780   -0.31880    0.00000 
H_      H        -0.04810    0.30930   -0.39090    0.00000 
C_R     C         0.25000    0.75000    0.38870    0.00000 
C_R     C         0.25000    0.75000    0.61130    0.00000 
C_R     C         0.25000    0.75000    0.44620    0.00000 
C_R     C         0.25000    0.75000    0.55380    0.00000 
C_R     C         0.28290    0.71710    0.47310    0.00000 
C_R     C         0.21710    0.78290    0.52690    0.00000 
C_R     C         0.28290    0.71710    0.52690    0.00000 
C_R     C         0.21710    0.78290    0.47310    0.00000 
H_      H         0.30490    0.69510    0.54480    0.00000 
H_      H         0.19510    0.80490    0.45520    0.00000 
S_3+6   S         0.32560    0.67440    0.43830    0.00000 
C_3     C         0.36350    0.70700    0.41820    0.00000 
C_3     C         0.35990    0.75830    0.44430    0.00000 
S_3+6   S         0.39860    0.75020    0.49980    0.00000 
C_3     C         0.37280    0.78280    0.54410    0.00000 
S_3+6   S         0.17440    0.82560    0.56170    0.00000 
C_3     C         0.13200    0.79850    0.58180    0.00000 
C_3     C         0.14120    0.74650    0.55890    0.00000 
S_3+6   S         0.16120    0.72220    0.50040    0.00000 
C_3     C         0.16640    0.65330    0.49120    0.00000 
H_      H         0.33370    0.76870    0.55100    0.00000 
H_      H         0.39550    0.77900    0.57940    0.00000 
H_      H         0.37130    0.82340    0.53270    0.00000 
H_      H         0.32000    0.76720    0.45480    0.00000 
H_      H         0.37510    0.78890    0.41960    0.00000 
H_      H         0.12870    0.63540    0.49730    0.00000 
H_      H         0.17960    0.64530    0.45200    0.00000 
H_      H         0.19410    0.63750    0.51880    0.00000 
H_      H         0.13310    0.71570    0.58650    0.00000 
H_      H         0.10100    0.81180    0.60710    0.00000 
H_      H         0.35750    0.71180    0.37670    0.00000 
H_      H         0.40160    0.69030    0.42510    0.00000 
H_      H         0.18120    0.74780    0.57200    0.00000 
H_      H         0.10910    0.80930    0.54810    0.00000 
C_R     C         0.25000    0.25000    0.38870    0.00000 
C_R     C         0.25000    0.25000    0.61130    0.00000 
C_R     C         0.25000    0.25000    0.44620    0.00000 
C_R     C         0.25000    0.25000    0.55380    0.00000 
C_R     C         0.28290    0.21710    0.47310    0.00000 
C_R     C         0.21710    0.28290    0.52690    0.00000 
C_R     C         0.28290    0.21710    0.52690    0.00000 
C_R     C         0.21710    0.28290    0.47310    0.00000 
H_      H         0.30490    0.19510    0.54480    0.00000 
H_      H         0.19510    0.30490    0.45520    0.00000 
S_3+6   S         0.32560    0.17440    0.43830    0.00000 
C_3     C         0.36350    0.20700    0.41820    0.00000 
C_3     C         0.35990    0.25830    0.44430    0.00000 
S_3+6   S         0.39860    0.25020    0.49980    0.00000 
C_3     C         0.37280    0.28280    0.54410    0.00000 
S_3+6   S         0.17440    0.32560    0.56170    0.00000 
C_3     C         0.13200    0.29850    0.58180    0.00000 
C_3     C         0.14120    0.24650    0.55890    0.00000 
S_3+6   S         0.16120    0.22220    0.50040    0.00000 
C_3     C         0.16640    0.15330    0.49120    0.00000 
H_      H         0.33370    0.26870    0.55100    0.00000 
H_      H         0.39550    0.27900    0.57940    0.00000 
H_      H         0.37130    0.32340    0.53270    0.00000 
H_      H         0.32000    0.26720    0.45480    0.00000 
H_      H         0.37510    0.28890    0.41960    0.00000 
H_      H         0.12870    0.13540    0.49730    0.00000 
H_      H         0.17960    0.14530    0.45200    0.00000 
H_      H         0.19410    0.13750    0.51880    0.00000 
H_      H         0.13310    0.21570    0.58650    0.00000 
H_      H         0.10100    0.31180    0.60710    0.00000 
H_      H         0.35750    0.21180    0.37670    0.00000 
H_      H         0.40160    0.19030    0.42510    0.00000 
H_      H         0.18120    0.24780    0.57200    0.00000 
H_      H         0.10910    0.30930    0.54810    0.00000 
C_R     C        -0.25000    0.75000    0.38870    0.00000 
C_R     C        -0.25000    0.75000    0.61130    0.00000 
C_R     C        -0.25000    0.75000    0.44620    0.00000 
C_R     C        -0.25000    0.75000    0.55380    0.00000 
C_R     C        -0.21710    0.71710    0.47310    0.00000 
C_R     C        -0.28290    0.78290    0.52690    0.00000 
C_R     C        -0.21710    0.71710    0.52690    0.00000 
C_R     C        -0.28290    0.78290    0.47310    0.00000 
H_      H        -0.19510    0.69510    0.54480    0.00000 
H_      H        -0.30490    0.80490    0.45520    0.00000 
S_3+6   S        -0.17440    0.67440    0.43830    0.00000 
C_3     C        -0.13650    0.70700    0.41820    0.00000 
C_3     C        -0.14010    0.75830    0.44430    0.00000 
S_3+6   S        -0.10140    0.75020    0.49980    0.00000 
C_3     C        -0.12720    0.78280    0.54410    0.00000 
S_3+6   S        -0.32560    0.82560    0.56170    0.00000 
C_3     C        -0.36800    0.79850    0.58180    0.00000 
C_3     C        -0.35880    0.74650    0.55890    0.00000 
S_3+6   S        -0.33880    0.72220    0.50040    0.00000 
C_3     C        -0.33360    0.65330    0.49120    0.00000 
H_      H        -0.16630    0.76870    0.55100    0.00000 
H_      H        -0.10450    0.77900    0.57940    0.00000 
H_      H        -0.12870    0.82340    0.53270    0.00000 
H_      H        -0.18000    0.76720    0.45480    0.00000 
H_      H        -0.12490    0.78890    0.41960    0.00000 
H_      H        -0.37130    0.63540    0.49730    0.00000 
H_      H        -0.32040    0.64530    0.45200    0.00000 
H_      H        -0.30590    0.63750    0.51880    0.00000 
H_      H        -0.36690    0.71570    0.58650    0.00000 
H_      H        -0.39900    0.81180    0.60710    0.00000 
H_      H        -0.14250    0.71180    0.37670    0.00000 
H_      H        -0.09840    0.69030    0.42510    0.00000 
H_      H        -0.31880    0.74780    0.57200    0.00000 
H_      H        -0.39090    0.80930    0.54810    0.00000 
C_R     C        -0.25000    0.25000    0.38870    0.00000 
C_R     C        -0.25000    0.25000    0.61130    0.00000 
C_R     C        -0.25000    0.25000    0.44620    0.00000 
C_R     C        -0.25000    0.25000    0.55380    0.00000 
C_R     C        -0.21710    0.21710    0.47310    0.00000 
C_R     C        -0.28290    0.28290    0.52690    0.00000 
C_R     C        -0.21710    0.21710    0.52690    0.00000 
C_R     C        -0.28290    0.28290    0.47310    0.00000 
H_      H        -0.19510    0.19510    0.54480    0.00000 
H_      H        -0.30490    0.30490    0.45520    0.00000 
S_3+6   S        -0.17440    0.17440    0.43830    0.00000 
C_3     C        -0.13650    0.20700    0.41820    0.00000 
C_3     C        -0.14010    0.25830    0.44430    0.00000 
S_3+6   S        -0.10140    0.25020    0.49980    0.00000 
C_3     C        -0.12720    0.28280    0.54410    0.00000 
S_3+6   S        -0.32560    0.32560    0.56170    0.00000 
C_3     C        -0.36800    0.29850    0.58180    0.00000 
C_3     C        -0.35880    0.24650    0.55890    0.00000 
S_3+6   S        -0.33880    0.22220    0.50040    0.00000 
C_3     C        -0.33360    0.15330    0.49120    0.00000 
H_      H        -0.16630    0.26870    0.55100    0.00000 
H_      H        -0.10450    0.27900    0.57940    0.00000 
H_      H        -0.12870    0.32340    0.53270    0.00000 
H_      H        -0.18000    0.26720    0.45480    0.00000 
H_      H        -0.12490    0.28890    0.41960    0.00000 
H_      H        -0.37130    0.13540    0.49730    0.00000 
H_      H        -0.32040    0.14530    0.45200    0.00000 
H_      H        -0.30590    0.13750    0.51880    0.00000 
H_      H        -0.36690    0.21570    0.58650    0.00000 
H_      H        -0.39900    0.31180    0.60710    0.00000 
H_      H        -0.14250    0.21180    0.37670    0.00000 
H_      H        -0.09840    0.19030    0.42510    0.00000 
H_      H        -0.31880    0.24780    0.57200    0.00000 
H_      H        -0.39090    0.30930    0.54810    0.00000 
C_R     C         0.25000    0.75000   -0.11130    0.00000 
C_R     C         0.25000    0.75000    0.11130    0.00000 
C_R     C         0.25000    0.75000   -0.05380    0.00000 
C_R     C         0.25000    0.75000    0.05380    0.00000 
C_R     C         0.28290    0.71710   -0.02690    0.00000 
C_R     C         0.21710    0.78290    0.02690    0.00000 
C_R     C         0.28290    0.71710    0.02690    0.00000 
C_R     C         0.21710    0.78290   -0.02690    0.00000 
H_      H         0.30490    0.69510    0.04480    0.00000 
H_      H         0.19510    0.80490   -0.04480    0.00000 
S_3+6   S         0.32560    0.67440   -0.06170    0.00000 
C_3     C         0.36350    0.70700   -0.08180    0.00000 
C_3     C         0.35990    0.75830   -0.05570    0.00000 
S_3+6   S         0.39860    0.75020   -0.00020    0.00000 
C_3     C         0.37280    0.78280    0.04410    0.00000 
S_3+6   S         0.17440    0.82560    0.06170    0.00000 
C_3     C         0.13200    0.79850    0.08180    0.00000 
C_3     C         0.14120    0.74650    0.05890    0.00000 
S_3+6   S         0.16120    0.72220    0.00040    0.00000 
C_3     C         0.16640    0.65330   -0.00880    0.00000 
H_      H         0.33370    0.76870    0.05100    0.00000 
H_      H         0.39550    0.77900    0.07940    0.00000 
H_      H         0.37130    0.82340    0.03270    0.00000 
H_      H         0.32000    0.76720   -0.04520    0.00000 
H_      H         0.37510    0.78890   -0.08040    0.00000 
H_      H         0.12870    0.63540   -0.00270    0.00000 
H_      H         0.17960    0.64530   -0.04800    0.00000 
H_      H         0.19410    0.63750    0.01880    0.00000 
H_      H         0.13310    0.71570    0.08650    0.00000 
H_      H         0.10100    0.81180    0.10710    0.00000 
H_      H         0.35750    0.71180   -0.12330    0.00000 
H_      H         0.40160    0.69030   -0.07490    0.00000 
H_      H         0.18120    0.74780    0.07200    0.00000 
H_      H         0.10910    0.80930    0.04810    0.00000 
C_R     C         0.25000    0.25000   -0.11130    0.00000 
C_R     C         0.25000    0.25000    0.11130    0.00000 
C_R     C         0.25000    0.25000   -0.05380    0.00000 
C_R     C         0.25000    0.25000    0.05380    0.00000 
C_R     C         0.28290    0.21710   -0.02690    0.00000 
C_R     C         0.21710    0.28290    0.02690    0.00000 
C_R     C         0.28290    0.21710    0.02690    0.00000 
C_R     C         0.21710    0.28290   -0.02690    0.00000 
H_      H         0.30490    0.19510    0.04480    0.00000 
H_      H         0.19510    0.30490   -0.04480    0.00000 
S_3+6   S         0.32560    0.17440   -0.06170    0.00000 
C_3     C         0.36350    0.20700   -0.08180    0.00000 
C_3     C         0.35990    0.25830   -0.05570    0.00000 
S_3+6   S         0.39860    0.25020   -0.00020    0.00000 
C_3     C         0.37280    0.28280    0.04410    0.00000 
S_3+6   S         0.17440    0.32560    0.06170    0.00000 
C_3     C         0.13200    0.29850    0.08180    0.00000 
C_3     C         0.14120    0.24650    0.05890    0.00000 
S_3+6   S         0.16120    0.22220    0.00040    0.00000 
C_3     C         0.16640    0.15330   -0.00880    0.00000 
H_      H         0.33370    0.26870    0.05100    0.00000 
H_      H         0.39550    0.27900    0.07940    0.00000 
H_      H         0.37130    0.32340    0.03270    0.00000 
H_      H         0.32000    0.26720   -0.04520    0.00000 
H_      H         0.37510    0.28890   -0.08040    0.00000 
H_      H         0.12870    0.13540   -0.00270    0.00000 
H_      H         0.17960    0.14530   -0.04800    0.00000 
H_      H         0.19410    0.13750    0.01880    0.00000 
H_      H         0.13310    0.21570    0.08650    0.00000 
H_      H         0.10100    0.31180    0.10710    0.00000 
H_      H         0.35750    0.21180   -0.12330    0.00000 
H_      H         0.40160    0.19030   -0.07490    0.00000 
H_      H         0.18120    0.24780    0.07200    0.00000 
H_      H         0.10910    0.30930    0.04810    0.00000 
C_R     C        -0.25000    0.75000   -0.11130    0.00000 
C_R     C        -0.25000    0.75000    0.11130    0.00000 
C_R     C        -0.25000    0.75000   -0.05380    0.00000 
C_R     C        -0.25000    0.75000    0.05380    0.00000 
C_R     C        -0.21710    0.71710   -0.02690    0.00000 
C_R     C        -0.28290    0.78290    0.02690    0.00000 
C_R     C        -0.21710    0.71710    0.02690    0.00000 
C_R     C        -0.28290    0.78290   -0.02690    0.00000 
H_      H        -0.19510    0.69510    0.04480    0.00000 
H_      H        -0.30490    0.80490   -0.04480    0.00000 
S_3+6   S        -0.17440    0.67440   -0.06170    0.00000 
C_3     C        -0.13650    0.70700   -0.08180    0.00000 
C_3     C        -0.14010    0.75830   -0.05570    0.00000 
S_3+6   S        -0.10140    0.75020   -0.00020    0.00000 
C_3     C        -0.12720    0.78280    0.04410    0.00000 
S_3+6   S        -0.32560    0.82560    0.06170    0.00000 
C_3     C        -0.36800    0.79850    0.08180    0.00000 
C_3     C        -0.35880    0.74650    0.05890    0.00000 
S_3+6   S        -0.33880    0.72220    0.00040    0.00000 
C_3     C        -0.33360    0.65330   -0.00880    0.00000 
H_      H        -0.16630    0.76870    0.05100    0.00000 
H_      H        -0.10450    0.77900    0.07940    0.00000 
H_      H        -0.12870    0.82340    0.03270    0.00000 
H_      H        -0.18000    0.76720   -0.04520    0.00000 
H_      H        -0.12490    0.78890   -0.08040    0.00000 
H_      H        -0.37130    0.63540   -0.00270    0.00000 
H_      H        -0.32040    0.64530   -0.04800    0.00000 
H_      H        -0.30590    0.63750    0.01880    0.00000 
H_      H        -0.36690    0.71570    0.08650    0.00000 
H_      H        -0.39900    0.81180    0.10710    0.00000 
H_      H        -0.14250    0.71180   -0.12330    0.00000 
H_      H        -0.09840    0.69030   -0.07490    0.00000 
H_      H        -0.31880    0.74780    0.07200    0.00000 
H_      H        -0.39090    0.80930    0.04810    0.00000 
C_R     C        -0.25000    0.25000   -0.11130    0.00000 
C_R     C        -0.25000    0.25000    0.11130    0.00000 
C_R     C        -0.25000    0.25000   -0.05380    0.00000 
C_R     C        -0.25000    0.25000    0.05380    0.00000 
C_R     C        -0.21710    0.21710   -0.02690    0.00000 
C_R     C        -0.28290    0.28290    0.02690    0.00000 
C_R     C        -0.21710    0.21710    0.02690    0.00000 
C_R     C        -0.28290    0.28290   -0.02690    0.00000 
H_      H        -0.19510    0.19510    0.04480    0.00000 
H_      H        -0.30490    0.30490   -0.04480    0.00000 
S_3+6   S        -0.17440    0.17440   -0.06170    0.00000 
C_3     C        -0.13650    0.20700   -0.08180    0.00000 
C_3     C        -0.14010    0.25830   -0.05570    0.00000 
S_3+6   S        -0.10140    0.25020   -0.00020    0.00000 
C_3     C        -0.12720    0.28280    0.04410    0.00000 
S_3+6   S        -0.32560    0.32560    0.06170    0.00000 
C_3     C        -0.36800    0.29850    0.08180    0.00000 
C_3     C        -0.35880    0.24650    0.05890    0.00000 
S_3+6   S        -0.33880    0.22220    0.00040    0.00000 
C_3     C        -0.33360    0.15330   -0.00880    0.00000 
H_      H        -0.16630    0.26870    0.05100    0.00000 
H_      H        -0.10450    0.27900    0.07940    0.00000 
H_      H        -0.12870    0.32340    0.03270    0.00000 
H_      H        -0.18000    0.26720   -0.04520    0.00000 
H_      H        -0.12490    0.28890   -0.08040    0.00000 
H_      H        -0.37130    0.13540   -0.00270    0.00000 
H_      H        -0.32040    0.14530   -0.04800    0.00000 
H_      H        -0.30590    0.13750    0.01880    0.00000 
H_      H        -0.36690    0.21570    0.08650    0.00000 
H_      H        -0.39900    0.31180    0.10710    0.00000 
H_      H        -0.14250    0.21180   -0.12330    0.00000 
H_      H        -0.09840    0.19030   -0.07490    0.00000 
H_      H        -0.31880    0.24780    0.07200    0.00000 
H_      H        -0.39090    0.30930    0.04810    0.00000 
C_R     C         0.75000    0.61130    0.25000    0.00000 
C_R     C         0.75000    0.38870    0.25000    0.00000 
C_R     C         0.75000    0.55380    0.25000    0.00000 
C_R     C         0.75000    0.44620    0.25000    0.00000 
C_R     C         0.78290    0.52690    0.28290    0.00000 
C_R     C         0.71710    0.47310    0.21710    0.00000 
C_R     C         0.78290    0.47310    0.28290    0.00000 
C_R     C         0.71710    0.52690    0.21710    0.00000 
H_      H         0.80490    0.45520    0.30490    0.00000 
H_      H         0.69510    0.54480    0.19510    0.00000 
S_3+6   S         0.82560    0.56170    0.32560    0.00000 
C_3     C         0.79300    0.58180    0.36350    0.00000 
C_3     C         0.74170    0.55570    0.35990    0.00000 
S_3+6   S         0.74980    0.50020    0.39860    0.00000 
C_3     C         0.71720    0.45590    0.37280    0.00000 
S_3+6   S         0.67440    0.43830    0.17440    0.00000 
C_3     C         0.70150    0.41820    0.13200    0.00000 
C_3     C         0.75350    0.44110    0.14120    0.00000 
S_3+6   S         0.77780    0.49960    0.16120    0.00000 
C_3     C         0.84670    0.50880    0.16640    0.00000 
H_      H         0.73130    0.44900    0.33370    0.00000 
H_      H         0.72100    0.42060    0.39550    0.00000 
H_      H         0.67660    0.46730    0.37130    0.00000 
H_      H         0.73280    0.54520    0.32000    0.00000 
H_      H         0.71110    0.58040    0.37510    0.00000 
H_      H         0.86460    0.50270    0.12870    0.00000 
H_      H         0.85470    0.54800    0.17960    0.00000 
H_      H         0.86250    0.48120    0.19410    0.00000 
H_      H         0.78430    0.41350    0.13310    0.00000 
H_      H         0.68820    0.39290    0.10100    0.00000 
H_      H         0.78820    0.62330    0.35750    0.00000 
H_      H         0.80970    0.57490    0.40160    0.00000 
H_      H         0.75220    0.42790    0.18120    0.00000 
H_      H         0.69070    0.45190    0.10910    0.00000 
C_R     C         0.75000    0.61130   -0.25000    0.00000 
C_R     C         0.75000    0.38870   -0.25000    0.00000 
C_R     C         0.75000    0.55380   -0.25000    0.00000 
C_R     C         0.75000    0.44620   -0.25000    0.00000 
C_R     C         0.78290    0.52690   -0.21710    0.00000 
C_R     C         0.71710    0.47310   -0.28290    0.00000 
C_R     C         0.78290    0.47310   -0.21710    0.00000 
C_R     C         0.71710    0.52690   -0.28290    0.00000 
H_      H         0.80490    0.45520   -0.19510    0.00000 
H_      H         0.69510    0.54480   -0.30490    0.00000 
S_3+6   S         0.82560    0.56170   -0.17440    0.00000 
C_3     C         0.79300    0.58180   -0.13650    0.00000 
C_3     C         0.74170    0.55570   -0.14010    0.00000 
S_3+6   S         0.74980    0.50020   -0.10140    0.00000 
C_3     C         0.71720    0.45590   -0.12720    0.00000 
S_3+6   S         0.67440    0.43830   -0.32560    0.00000 
C_3     C         0.70150    0.41820   -0.36800    0.00000 
C_3     C         0.75350    0.44110   -0.35880    0.00000 
S_3+6   S         0.77780    0.49960   -0.33880    0.00000 
C_3     C         0.84670    0.50880   -0.33360    0.00000 
H_      H         0.73130    0.44900   -0.16630    0.00000 
H_      H         0.72100    0.42060   -0.10450    0.00000 
H_      H         0.67660    0.46730   -0.12870    0.00000 
H_      H         0.73280    0.54520   -0.18000    0.00000 
H_      H         0.71110    0.58040   -0.12490    0.00000 
H_      H         0.86460    0.50270   -0.37130    0.00000 
H_      H         0.85470    0.54800   -0.32040    0.00000 
H_      H         0.86250    0.48120   -0.30590    0.00000 
H_      H         0.78430    0.41350   -0.36690    0.00000 
H_      H         0.68820    0.39290   -0.39900    0.00000 
H_      H         0.78820    0.62330   -0.14250    0.00000 
H_      H         0.80970    0.57490   -0.09840    0.00000 
H_      H         0.75220    0.42790   -0.31880    0.00000 
H_      H         0.69070    0.45190   -0.39090    0.00000 
C_R     C         0.25000    0.61130    0.25000    0.00000 
C_R     C         0.25000    0.38870    0.25000    0.00000 
C_R     C         0.25000    0.55380    0.25000    0.00000 
C_R     C         0.25000    0.44620    0.25000    0.00000 
C_R     C         0.28290    0.52690    0.28290    0.00000 
C_R     C         0.21710    0.47310    0.21710    0.00000 
C_R     C         0.28290    0.47310    0.28290    0.00000 
C_R     C         0.21710    0.52690    0.21710    0.00000 
H_      H         0.30490    0.45520    0.30490    0.00000 
H_      H         0.19510    0.54480    0.19510    0.00000 
S_3+6   S         0.32560    0.56170    0.32560    0.00000 
C_3     C         0.29300    0.58180    0.36350    0.00000 
C_3     C         0.24170    0.55570    0.35990    0.00000 
S_3+6   S         0.24980    0.50020    0.39860    0.00000 
C_3     C         0.21720    0.45590    0.37280    0.00000 
S_3+6   S         0.17440    0.43830    0.17440    0.00000 
C_3     C         0.20150    0.41820    0.13200    0.00000 
C_3     C         0.25350    0.44110    0.14120    0.00000 
S_3+6   S         0.27780    0.49960    0.16120    0.00000 
C_3     C         0.34670    0.50880    0.16640    0.00000 
H_      H         0.23130    0.44900    0.33370    0.00000 
H_      H         0.22100    0.42060    0.39550    0.00000 
H_      H         0.17660    0.46730    0.37130    0.00000 
H_      H         0.23280    0.54520    0.32000    0.00000 
H_      H         0.21110    0.58040    0.37510    0.00000 
H_      H         0.36460    0.50270    0.12870    0.00000 
H_      H         0.35470    0.54800    0.17960    0.00000 
H_      H         0.36250    0.48120    0.19410    0.00000 
H_      H         0.28430    0.41350    0.13310    0.00000 
H_      H         0.18820    0.39290    0.10100    0.00000 
H_      H         0.28820    0.62330    0.35750    0.00000 
H_      H         0.30970    0.57490    0.40160    0.00000 
H_      H         0.25220    0.42790    0.18120    0.00000 
H_      H         0.19070    0.45190    0.10910    0.00000 
C_R     C         0.25000    0.61130   -0.25000    0.00000 
C_R     C         0.25000    0.38870   -0.25000    0.00000 
C_R     C         0.25000    0.55380   -0.25000    0.00000 
C_R     C         0.25000    0.44620   -0.25000    0.00000 
C_R     C         0.28290    0.52690   -0.21710    0.00000 
C_R     C         0.21710    0.47310   -0.28290    0.00000 
C_R     C         0.28290    0.47310   -0.21710    0.00000 
C_R     C         0.21710    0.52690   -0.28290    0.00000 
H_      H         0.30490    0.45520   -0.19510    0.00000 
H_      H         0.19510    0.54480   -0.30490    0.00000 
S_3+6   S         0.32560    0.56170   -0.17440    0.00000 
C_3     C         0.29300    0.58180   -0.13650    0.00000 
C_3     C         0.24170    0.55570   -0.14010    0.00000 
S_3+6   S         0.24980    0.50020   -0.10140    0.00000 
C_3     C         0.21720    0.45590   -0.12720    0.00000 
S_3+6   S         0.17440    0.43830   -0.32560    0.00000 
C_3     C         0.20150    0.41820   -0.36800    0.00000 
C_3     C         0.25350    0.44110   -0.35880    0.00000 
S_3+6   S         0.27780    0.49960   -0.33880    0.00000 
C_3     C         0.34670    0.50880   -0.33360    0.00000 
H_      H         0.23130    0.44900   -0.16630    0.00000 
H_      H         0.22100    0.42060   -0.10450    0.00000 
H_      H         0.17660    0.46730   -0.12870    0.00000 
H_      H         0.23280    0.54520   -0.18000    0.00000 
H_      H         0.21110    0.58040   -0.12490    0.00000 
H_      H         0.36460    0.50270   -0.37130    0.00000 
H_      H         0.35470    0.54800   -0.32040    0.00000 
H_      H         0.36250    0.48120   -0.30590    0.00000 
H_      H         0.28430    0.41350   -0.36690    0.00000 
H_      H         0.18820    0.39290   -0.39900    0.00000 
H_      H         0.28820    0.62330   -0.14250    0.00000 
H_      H         0.30970    0.57490   -0.09840    0.00000 
H_      H         0.25220    0.42790   -0.31880    0.00000 
H_      H         0.19070    0.45190   -0.39090    0.00000 
C_R     C         0.75000    0.11130    0.25000    0.00000 
C_R     C         0.75000   -0.11130    0.25000    0.00000 
C_R     C         0.75000    0.05380    0.25000    0.00000 
C_R     C         0.75000   -0.05380    0.25000    0.00000 
C_R     C         0.78290    0.02690    0.28290    0.00000 
C_R     C         0.71710   -0.02690    0.21710    0.00000 
C_R     C         0.78290   -0.02690    0.28290    0.00000 
C_R     C         0.71710    0.02690    0.21710    0.00000 
H_      H         0.80490   -0.04480    0.30490    0.00000 
H_      H         0.69510    0.04480    0.19510    0.00000 
S_3+6   S         0.82560    0.06170    0.32560    0.00000 
C_3     C         0.79300    0.08180    0.36350    0.00000 
C_3     C         0.74170    0.05570    0.35990    0.00000 
S_3+6   S         0.74980    0.00020    0.39860    0.00000 
C_3     C         0.71720   -0.04410    0.37280    0.00000 
S_3+6   S         0.67440   -0.06170    0.17440    0.00000 
C_3     C         0.70150   -0.08180    0.13200    0.00000 
C_3     C         0.75350   -0.05890    0.14120    0.00000 
S_3+6   S         0.77780   -0.00040    0.16120    0.00000 
C_3     C         0.84670    0.00880    0.16640    0.00000 
H_      H         0.73130   -0.05100    0.33370    0.00000 
H_      H         0.72100   -0.07940    0.39550    0.00000 
H_      H         0.67660   -0.03270    0.37130    0.00000 
H_      H         0.73280    0.04520    0.32000    0.00000 
H_      H         0.71110    0.08040    0.37510    0.00000 
H_      H         0.86460    0.00270    0.12870    0.00000 
H_      H         0.85470    0.04800    0.17960    0.00000 
H_      H         0.86250   -0.01880    0.19410    0.00000 
H_      H         0.78430   -0.08650    0.13310    0.00000 
H_      H         0.68820   -0.10710    0.10100    0.00000 
H_      H         0.78820    0.12330    0.35750    0.00000 
H_      H         0.80970    0.07490    0.40160    0.00000 
H_      H         0.75220   -0.07210    0.18120    0.00000 
H_      H         0.69070   -0.04810    0.10910    0.00000 
C_R     C         0.75000    0.11130   -0.25000    0.00000 
C_R     C         0.75000   -0.11130   -0.25000    0.00000 
C_R     C         0.75000    0.05380   -0.25000    0.00000 
C_R     C         0.75000   -0.05380   -0.25000    0.00000 
C_R     C         0.78290    0.02690   -0.21710    0.00000 
C_R     C         0.71710   -0.02690   -0.28290    0.00000 
C_R     C         0.78290   -0.02690   -0.21710    0.00000 
C_R     C         0.71710    0.02690   -0.28290    0.00000 
H_      H         0.80490   -0.04480   -0.19510    0.00000 
H_      H         0.69510    0.04480   -0.30490    0.00000 
S_3+6   S         0.82560    0.06170   -0.17440    0.00000 
C_3     C         0.79300    0.08180   -0.13650    0.00000 
C_3     C         0.74170    0.05570   -0.14010    0.00000 
S_3+6   S         0.74980    0.00020   -0.10140    0.00000 
C_3     C         0.71720   -0.04410   -0.12720    0.00000 
S_3+6   S         0.67440   -0.06170   -0.32560    0.00000 
C_3     C         0.70150   -0.08180   -0.36800    0.00000 
C_3     C         0.75350   -0.05890   -0.35880    0.00000 
S_3+6   S         0.77780   -0.00040   -0.33880    0.00000 
C_3     C         0.84670    0.00880   -0.33360    0.00000 
H_      H         0.73130   -0.05100   -0.16630    0.00000 
H_      H         0.72100   -0.07940   -0.10450    0.00000 
H_      H         0.67660   -0.03270   -0.12870    0.00000 
H_      H         0.73280    0.04520   -0.18000    0.00000 
H_      H         0.71110    0.08040   -0.12490    0.00000 
H_      H         0.86460    0.00270   -0.37130    0.00000 
H_      H         0.85470    0.04800   -0.32040    0.00000 
H_      H         0.86250   -0.01880   -0.30590    0.00000 
H_      H         0.78430   -0.08650   -0.36690    0.00000 
H_      H         0.68820   -0.10710   -0.39900    0.00000 
H_      H         0.78820    0.12330   -0.14250    0.00000 
H_      H         0.80970    0.07490   -0.09840    0.00000 
H_      H         0.75220   -0.07210   -0.31880    0.00000 
H_      H         0.69070   -0.04810   -0.39090    0.00000 
C_R     C         0.25000    0.11130    0.25000    0.00000 
C_R     C         0.25000   -0.11130    0.25000    0.00000 
C_R     C         0.25000    0.05380    0.25000    0.00000 
C_R     C         0.25000   -0.05380    0.25000    0.00000 
C_R     C         0.28290    0.02690    0.28290    0.00000 
C_R     C         0.21710   -0.02690    0.21710    0.00000 
C_R     C         0.28290   -0.02690    0.28290    0.00000 
C_R     C         0.21710    0.02690    0.21710    0.00000 
H_      H         0.30490   -0.04480    0.30490    0.00000 
H_      H         0.19510    0.04480    0.19510    0.00000 
S_3+6   S         0.32560    0.06170    0.32560    0.00000 
C_3     C         0.29300    0.08180    0.36350    0.00000 
C_3     C         0.24170    0.05570    0.35990    0.00000 
S_3+6   S         0.24980    0.00020    0.39860    0.00000 
C_3     C         0.21720   -0.04410    0.37280    0.00000 
S_3+6   S         0.17440   -0.06170    0.17440    0.00000 
C_3     C         0.20150   -0.08180    0.13200    0.00000 
C_3     C         0.25350   -0.05890    0.14120    0.00000 
S_3+6   S         0.27780   -0.00040    0.16120    0.00000 
C_3     C         0.34670    0.00880    0.16640    0.00000 
H_      H         0.23130   -0.05100    0.33370    0.00000 
H_      H         0.22100   -0.07940    0.39550    0.00000 
H_      H         0.17660   -0.03270    0.37130    0.00000 
H_      H         0.23280    0.04520    0.32000    0.00000 
H_      H         0.21110    0.08040    0.37510    0.00000 
H_      H         0.36460    0.00270    0.12870    0.00000 
H_      H         0.35470    0.04800    0.17960    0.00000 
H_      H         0.36250   -0.01880    0.19410    0.00000 
H_      H         0.28430   -0.08650    0.13310    0.00000 
H_      H         0.18820   -0.10710    0.10100    0.00000 
H_      H         0.28820    0.12330    0.35750    0.00000 
H_      H         0.30970    0.07490    0.40160    0.00000 
H_      H         0.25220   -0.07210    0.18120    0.00000 
H_      H         0.19070   -0.04810    0.10910    0.00000 
C_R     C         0.25000    0.11130   -0.25000    0.00000 
C_R     C         0.25000   -0.11130   -0.25000    0.00000 
C_R     C         0.25000    0.05380   -0.25000    0.00000 
C_R     C         0.25000   -0.05380   -0.25000    0.00000 
C_R     C         0.28290    0.02690   -0.21710    0.00000 
C_R     C         0.21710   -0.02690   -0.28290    0.00000 
C_R     C         0.28290   -0.02690   -0.21710    0.00000 
C_R     C         0.21710    0.02690   -0.28290    0.00000 
H_      H         0.30490   -0.04480   -0.19510    0.00000 
H_      H         0.19510    0.04480   -0.30490    0.00000 
S_3+6   S         0.32560    0.06170   -0.17440    0.00000 
C_3     C         0.29300    0.08180   -0.13650    0.00000 
C_3     C         0.24170    0.05570   -0.14010    0.00000 
S_3+6   S         0.24980    0.00020   -0.10140    0.00000 
C_3     C         0.21720   -0.04410   -0.12720    0.00000 
S_3+6   S         0.17440   -0.06170   -0.32560    0.00000 
C_3     C         0.20150   -0.08180   -0.36800    0.00000 
C_3     C         0.25350   -0.05890   -0.35880    0.00000 
S_3+6   S         0.27780   -0.00040   -0.33880    0.00000 
C_3     C         0.34670    0.00880   -0.33360    0.00000 
H_      H         0.23130   -0.05100   -0.16630    0.00000 
H_      H         0.22100   -0.07940   -0.10450    0.00000 
H_      H         0.17660   -0.03270   -0.12870    0.00000 
H_      H         0.23280    0.04520   -0.18000    0.00000 
H_      H         0.21110    0.08040   -0.12490    0.00000 
H_      H         0.36460    0.00270   -0.37130    0.00000 
H_      H         0.35470    0.04800   -0.32040    0.00000 
H_      H         0.36250   -0.01880   -0.30590    0.00000 
H_      H         0.28430   -0.08650   -0.36690    0.00000 
H_      H         0.18820   -0.10710   -0.39900    0.00000 
H_      H         0.28820    0.12330   -0.14250    0.00000 
H_      H         0.30970    0.07490   -0.09840    0.00000 
H_      H         0.25220   -0.07210   -0.31880    0.00000 
H_      H         0.19070   -0.04810   -0.39090    0.00000 
Zn3+2   Zn        0.29340    0.70660    0.70660    0.00000 
Zn3+2   Zn        0.70660    0.29340    0.70660    0.00000 
Zn3+2   Zn        0.70660    0.70660    0.29340    0.00000 
Zn3+2   Zn        0.29340    0.29340    0.29340    0.00000 
Zn3+2   Zn        0.20660    0.79340    0.70660    0.00000 
Zn3+2   Zn        0.20660    0.20660    0.29340    0.00000 
Zn3+2   Zn        0.79340    0.20660    0.70660    0.00000 
Zn3+2   Zn        0.79340    0.79340    0.29340    0.00000 
Zn3+2   Zn        0.20660    0.70660    0.79340    0.00000 
Zn3+2   Zn        0.79340    0.70660    0.20660    0.00000 
Zn3+2   Zn        0.20660    0.29340    0.20660    0.00000 
Zn3+2   Zn        0.79340    0.29340    0.79340    0.00000 
Zn3+2   Zn        0.20660    0.79340    0.29340    0.00000 
Zn3+2   Zn        0.79340    0.20660    0.29340    0.00000 
Zn3+2   Zn        0.20660    0.20660    0.70660    0.00000 
Zn3+2   Zn        0.79340    0.79340    0.70660    0.00000 
Zn3+2   Zn        0.29340    0.70660    0.29340    0.00000 
Zn3+2   Zn        0.70660    0.70660    0.70660    0.00000 
Zn3+2   Zn        0.70660    0.29340    0.29340    0.00000 
Zn3+2   Zn        0.29340    0.29340    0.70660    0.00000 
Zn3+2   Zn        0.20660    0.70660    0.20660    0.00000 
Zn3+2   Zn        0.20660    0.29340    0.79340    0.00000 
Zn3+2   Zn        0.79340    0.70660    0.79340    0.00000 
Zn3+2   Zn        0.79340    0.29340    0.20660    0.00000 
Zn3+2   Zn        0.70660    0.20660    0.79340    0.00000 
Zn3+2   Zn        0.29340    0.20660    0.20660    0.00000 
Zn3+2   Zn        0.70660    0.79340    0.20660    0.00000 
Zn3+2   Zn        0.29340    0.79340    0.79340    0.00000 
Zn3+2   Zn        0.70660    0.20660    0.20660    0.00000 
Zn3+2   Zn        0.70660    0.79340    0.79340    0.00000 
Zn3+2   Zn        0.29340    0.20660    0.79340    0.00000 
Zn3+2   Zn        0.29340    0.79340    0.20660    0.00000 
O_2     O         0.25000    0.75000    0.75000    0.00000 
O_2     O         0.75000    0.25000    0.75000    0.00000 
O_2     O         0.75000    0.75000    0.25000    0.00000 
O_2     O         0.25000    0.25000    0.25000    0.00000 
O_2     O         0.25000    0.75000    0.25000    0.00000 
O_2     O         0.75000    0.25000    0.25000    0.00000 
O_2     O         0.25000    0.25000    0.75000    0.00000 
O_2     O         0.75000    0.75000    0.75000    0.00000 
O_R     O         0.28190    0.71810    0.63400    0.00000 
O_R     O         0.71810    0.28190    0.63400    0.00000 
O_R     O         0.71810    0.71810    0.36600    0.00000 
O_R     O         0.28190    0.28190    0.36600    0.00000 
O_R     O         0.13400    0.78190    0.71810    0.00000 
O_R     O         0.13400    0.21810    0.28190    0.00000 
O_R     O         0.86600    0.21810    0.71810    0.00000 
O_R     O         0.86600    0.78190    0.28190    0.00000 
O_R     O         0.21810    0.63400    0.78190    0.00000 
O_R     O         0.78190    0.63400    0.21810    0.00000 
O_R     O         0.21810    0.36600    0.21810    0.00000 
O_R     O         0.78190    0.36600    0.78190    0.00000 
O_R     O         0.21810    0.78190    0.36600    0.00000 
O_R     O         0.78190    0.21810    0.36600    0.00000 
O_R     O         0.21810    0.21810    0.63400    0.00000 
O_R     O         0.78190    0.78190    0.63400    0.00000 
O_R     O         0.28190    0.63400    0.28190    0.00000 
O_R     O         0.71810    0.63400    0.71810    0.00000 
O_R     O         0.71810    0.36600    0.28190    0.00000 
O_R     O         0.28190    0.36600    0.71810    0.00000 
O_R     O         0.13400    0.71810    0.21810    0.00000 
O_R     O         0.13400    0.28190    0.78190    0.00000 
O_R     O         0.86600    0.71810    0.78190    0.00000 
O_R     O         0.86600    0.28190    0.21810    0.00000 
O_R     O         0.71810    0.28190    0.36600    0.00000 
O_R     O         0.28190    0.71810    0.36600    0.00000 
O_R     O         0.28190    0.28190    0.63400    0.00000 
O_R     O         0.71810    0.71810    0.63400    0.00000 
O_R     O         0.86600    0.21810    0.28190    0.00000 
O_R     O         0.86600    0.78190    0.71810    0.00000 
O_R     O         0.13400    0.78190    0.28190    0.00000 
O_R     O         0.13400    0.21810    0.71810    0.00000 
O_R     O         0.78190    0.36600    0.21810    0.00000 
O_R     O         0.21810    0.36600    0.78190    0.00000 
O_R     O         0.78190    0.63400    0.78190    0.00000 
O_R     O         0.21810    0.63400    0.21810    0.00000 
O_R     O         0.78190    0.21810    0.63400    0.00000 
O_R     O         0.21810    0.78190    0.63400    0.00000 
O_R     O         0.78190    0.78190    0.36600    0.00000 
O_R     O         0.21810    0.21810    0.36600    0.00000 
O_R     O         0.71810    0.36600    0.71810    0.00000 
O_R     O         0.28190    0.36600    0.28190    0.00000 
O_R     O         0.28190    0.63400    0.71810    0.00000 
O_R     O         0.71810    0.63400    0.28190    0.00000 
O_R     O         0.86600    0.28190    0.78190    0.00000 
O_R     O         0.86600    0.71810    0.21810    0.00000 
O_R     O         0.13400    0.28190    0.21810    0.00000 
O_R     O         0.13400    0.71810    0.78190    0.00000 
O_R     O         0.63400    0.28190    0.71810    0.00000 
O_R     O         0.63400    0.71810    0.28190    0.00000 
O_R     O         0.36600    0.71810    0.71810    0.00000 
O_R     O         0.36600    0.28190    0.28190    0.00000 
O_R     O         0.71810    0.13400    0.78190    0.00000 
O_R     O         0.28190    0.13400    0.21810    0.00000 
O_R     O         0.71810    0.86600    0.21810    0.00000 
O_R     O         0.28190    0.86600    0.78190    0.00000 
O_R     O         0.78190    0.13400    0.28190    0.00000 
O_R     O         0.21810    0.13400    0.71810    0.00000 
O_R     O         0.21810    0.86600    0.28190    0.00000 
O_R     O         0.78190    0.86600    0.71810    0.00000 
O_R     O         0.63400    0.21810    0.21810    0.00000 
O_R     O         0.63400    0.78190    0.78190    0.00000 
O_R     O         0.36600    0.21810    0.78190    0.00000 
O_R     O         0.36600    0.78190    0.21810    0.00000 
O_R     O         0.36600    0.71810    0.28190    0.00000 
O_R     O         0.36600    0.28190    0.71810    0.00000 
O_R     O         0.63400    0.28190    0.28190    0.00000 
O_R     O         0.63400    0.71810    0.71810    0.00000 
O_R     O         0.28190    0.86600    0.21810    0.00000 
O_R     O         0.71810    0.86600    0.78190    0.00000 
O_R     O         0.28190    0.13400    0.78190    0.00000 
O_R     O         0.71810    0.13400    0.21810    0.00000 
O_R     O         0.21810    0.86600    0.71810    0.00000 
O_R     O         0.78190    0.86600    0.28190    0.00000 
O_R     O         0.78190    0.13400    0.71810    0.00000 
O_R     O         0.21810    0.13400    0.28190    0.00000 
O_R     O         0.36600    0.78190    0.78190    0.00000 
O_R     O         0.36600    0.21810    0.21810    0.00000 
O_R     O         0.63400    0.78190    0.21810    0.00000 
O_R     O         0.63400    0.21810    0.78190    0.00000 
O_R     O         0.78190    0.71810    0.13400    0.00000 
O_R     O         0.21810    0.28190    0.13400    0.00000 
O_R     O         0.21810    0.71810    0.86600    0.00000 
O_R     O         0.78190    0.28190    0.86600    0.00000 
O_R     O         0.71810    0.78190    0.86600    0.00000 
O_R     O         0.28190    0.21810    0.86600    0.00000 
O_R     O         0.71810    0.21810    0.13400    0.00000 
O_R     O         0.28190    0.78190    0.13400    0.00000 
O_R     O         0.21810    0.28190    0.86600    0.00000 
O_R     O         0.78190    0.71810    0.86600    0.00000 
O_R     O         0.78190    0.28190    0.13400    0.00000 
O_R     O         0.21810    0.71810    0.13400    0.00000 
O_R     O         0.28190    0.21810    0.13400    0.00000 
O_R     O         0.71810    0.78190    0.13400    0.00000 
O_R     O         0.28190    0.78190    0.86600    0.00000 
O_R     O         0.71810    0.21810    0.86600    0.00000 
