data_NiPyC2_relax_sc211_meta_functionalized_O-CH2-CH2-CH3_pbesol_relax_frozen_parent_atoms_PM
_symmetry_space_group_name_H-M	'P1'
_cell_length_a	12.505617
_cell_length_b	12.523412
_cell_length_c	10.276810
_cell_angle_alpha	90.000000
_cell_angle_beta	91.268973
_cell_angle_gamma	90.000000
_symmetry_Int_Tables_number 1

loop_
_symmetry_equiv_pos_as_xyz
'x,y,z'

loop_
_atom_site_label
_atom_site_type_symbol
_atom_site_fract_x
_atom_site_fract_y
_atom_site_fract_z
C1	C	0.288212	0.970050	0.521984
C2	C	0.038379	0.031106	0.022308
C3	C	0.390634	0.011770	0.546492
C4	C	0.140244	0.987744	0.046146
C5	C	0.451915	0.970202	0.650371
C6	C	0.202520	0.028353	0.149893
C7	C	0.208181	0.529704	0.526384
C8	C	0.458545	0.471409	0.027904
C9	C	0.245137	0.613331	0.606435
C10	C	0.496819	0.388677	0.108617
C11	C	0.249476	0.889206	0.603203
C12	C	0.001069	0.112232	0.104247
C13	C	0.407977	0.889383	0.727552
C14	C	0.159935	0.109547	0.227812
C15	C	0.088862	0.608983	0.727352
C16	C	0.340890	0.391633	0.229394
C17	C	0.046925	0.525079	0.651312
C18	C	0.297658	0.474711	0.152754
C19	C	0.108164	0.484270	0.550116
C20	C	0.357832	0.515656	0.050638
C21	C	0.433310	0.099319	0.466621
C22	C	0.181517	0.899720	0.965672
C23	C	0.067378	0.394474	0.470676
C24	C	0.316043	0.604172	0.969107
C25	C	0.788212	0.970050	0.521984
C26	C	0.538379	0.031106	0.022308
C27	C	0.890634	0.011770	0.546492
C28	C	0.640244	0.987744	0.046146
C29	C	0.951915	0.970202	0.650371
C30	C	0.702520	0.028353	0.149893
C31	C	0.708182	0.529704	0.526384
C32	C	0.958546	0.471409	0.027904
C33	C	0.745137	0.613331	0.606435
C34	C	0.996819	0.388677	0.108617
C35	C	0.749476	0.889206	0.603203
C36	C	0.501069	0.112232	0.104247
C37	C	0.907977	0.889383	0.727552
C38	C	0.659934	0.109547	0.227812
C39	C	0.588862	0.608983	0.727352
C40	C	0.840890	0.391633	0.229394
C41	C	0.546925	0.525079	0.651312
C42	C	0.797658	0.474711	0.152754
C43	C	0.608164	0.484270	0.550116
C44	C	0.857832	0.515656	0.050638
C45	C	0.933310	0.099319	0.466621
C46	C	0.681517	0.899720	0.965672
C47	C	0.567377	0.394474	0.470676
C48	C	0.816043	0.604172	0.969107
C49	C	0.589146	1.072035	0.764993
C50	C	0.685931	0.138084	0.737357
C51	C	0.764415	0.138099	0.849615
C52	C	0.288173	-0.122695	0.237950
C53	C	0.388913	0.720499	0.323017
C54	C	0.486573	0.696412	0.381672
C55	C	0.924965	0.382081	0.715219
C56	C	0.810020	0.358734	0.687978
C57	C	0.737452	0.390966	0.793758
C58	C	0.142424	0.559062	0.274811
C59	C	0.050376	0.629436	0.239186
C60	C	0.973254	0.631694	0.348567
C61	C	0.549816	0.795266	0.396906
C62	C	0.483135	-0.123577	0.330902
C63	C	0.385202	-0.168813	0.293811
C64	C	0.814213	-0.118053	0.221293
C65	C	0.925569	0.852003	0.185080
C66	C	0.007711	0.883909	0.284169
C67	C	0.451362	0.371894	0.736944
C68	C	0.340685	0.318941	0.738782
C69	C	0.271346	0.368736	0.833921
C70	C	0.117757	0.444820	0.921424
C71	C	0.163541	0.392098	0.818817
C72	C	0.286966	0.288759	0.612298
H1	H	0.237124	0.999575	0.443113
H2	H	0.486538	0.002692	0.943499
H3	H	0.032063	0.998805	0.673520
H4	H	0.258700	0.500895	0.449282
H5	H	0.322641	0.650506	0.592635
H6	H	0.074968	0.352851	0.095028
H7	H	0.170154	0.855123	0.588560
H8	H	0.422322	0.147732	0.089886
H9	H	0.453370	0.855173	0.808761
H10	H	0.206239	0.143103	0.308797
H11	H	0.043729	0.642944	0.806608
H12	H	0.296378	0.357526	0.309051
H13	H	0.986538	0.002692	0.943499
H14	H	0.758700	0.500895	0.449282
H15	H	0.508641	0.500397	0.950548
H16	H	0.822641	0.650506	0.592635
H17	H	0.574968	0.352851	0.095028
H18	H	0.670154	0.855123	0.588560
H19	H	0.922322	0.147732	0.089886
H20	H	0.953370	0.855173	0.808761
H21	H	0.706240	0.143103	0.308797
H22	H	0.543729	0.642944	0.806608
H23	H	0.796378	0.357526	0.309051
H24	H	0.718952	0.505201	0.175264
H25	H	0.610119	1.013316	0.838924
H26	H	0.519540	1.119151	0.795130
H27	H	0.659437	0.219978	0.714051
H28	H	0.723251	0.108925	0.648396
H29	H	0.728938	0.169062	0.939252
H30	H	0.835011	0.186652	0.830631
H31	H	0.791726	1.056358	0.871062
H32	H	0.261248	-0.173590	0.155512
H33	H	0.223076	-0.126805	0.309050
H34	H	0.464554	0.813107	0.054447
H35	H	0.325916	0.664043	0.298018
H36	H	0.569264	0.084047	0.545960
H37	H	0.611426	0.636233	0.159120
H38	H	0.512146	0.618180	0.415128
H39	H	0.943900	0.370298	0.819204
H40	H	0.977028	0.327116	0.661838
H41	H	0.804981	0.272836	0.666426
H42	H	0.788580	0.396091	0.593641
H43	H	0.757802	0.349914	0.885499
H44	H	0.653654	0.372117	0.769585
H45	H	0.742514	0.477050	0.811614
H46	H	0.197400	0.602778	0.340016
H47	H	0.117627	0.483930	0.317377
H48	H	1.010974	0.600166	0.149069
H49	H	0.079374	0.710007	0.214885
H50	H	0.945852	0.550827	0.372403
H51	H	0.902600	0.680228	0.326005
H52	H	1.010257	0.664864	0.438029
H53	H	0.633473	0.791441	0.367018
H54	H	0.555800	0.815190	0.501894
H55	H	0.519885	0.119553	0.288808
H56	H	0.574446	-0.369295	0.215675
H57	H	0.507943	-0.041797	0.313567
H58	H	0.448904	0.040907	0.147070
H59	H	0.508247	0.776031	0.075601
H60	H	0.750829	-0.167636	0.176668
H61	H	0.805761	-0.124070	0.327727
H62	H	-0.058759	0.888199	0.089392
H63	H	0.924990	0.765768	0.165058
H64	H	0.003138	-0.030562	0.305729
H65	H	0.087948	0.868376	0.247819
H66	H	-0.001262	0.839979	0.375929
H67	H	0.482691	0.377017	0.837931
H68	H	0.506971	0.323856	0.680808
H69	H	0.364958	0.243189	0.790054
H70	H	0.277270	0.357289	0.547557
H71	H	0.309357	0.386896	0.927505
H72	H	0.072007	0.172253	0.810495
H73	H	0.189699	0.603848	1.061894
H74	H	0.073276	0.171213	0.737870
H75	H	0.163456	0.452348	1.010801
H76	H	0.230588	0.620467	0.788330
H77	H	0.208855	0.252588	0.628905
H78	H	0.120341	0.366525	0.732077
H79	H	0.300159	0.544254	0.653247
H80	H	0.334263	0.231424	0.559241
N1	N	0.308437	0.851253	0.704828
N2	N	0.060729	0.148857	0.206052
N3	N	0.186542	0.650310	0.705838
N4	N	0.438810	0.350928	0.208041
N5	N	0.808437	0.851253	0.704828
N6	N	0.560729	0.148857	0.206052
N7	N	0.686543	0.650310	0.705838
N8	N	0.938810	0.350928	0.208041
Ni1	Ni	0.247002	0.751486	0.836326
Ni2	Ni	0.499972	0.247999	0.339178
Ni3	Ni	0.747002	0.751486	0.836326
Ni4	Ni	0.999972	0.247999	0.339178
O1	O	0.122778	0.347689	0.382873
O2	O	0.371208	0.650977	0.881292
O3	O	0.377630	0.147507	0.377178
O4	O	0.125098	0.852352	0.876261
O5	O	0.473069	0.356160	0.482994
O6	O	0.221137	0.641415	0.979877
O7	O	0.028840	0.135158	0.481078
O8	O	0.276686	0.862758	0.979399
O9	O	0.622779	0.347689	0.382873
O10	O	0.871208	0.650977	0.881292
O11	O	0.877630	0.147507	0.377178
O12	O	0.625098	0.852352	0.876261
O13	O	0.973069	0.356160	0.482994
O14	O	0.721137	0.641415	0.979877
O15	O	0.528840	0.135158	0.481078
O16	O	0.776686	0.862758	0.979399
O17	O	0.555428	0.006309	0.654707
O18	O	0.297086	0.986141	0.194788
O19	O	0.950234	0.491432	0.684972
O20	O	0.202160	0.527770	0.162322
O21	O	0.720873	0.007658	0.441255
O22	O	0.797331	0.992925	0.191477
O23	O	0.451727	0.482532	0.689243
O24	O	0.019285	0.490721	0.922845
