data_NiPyC2_relax_sc211_meta_functionalized_CH2-NH2_pbesol_relax_frozen_parent_atoms_Round2_PM
_symmetry_space_group_name_H-M	'P1'
_cell_length_a	12.505617
_cell_length_b	12.523412
_cell_length_c	10.276810
_cell_angle_alpha	90.000000
_cell_angle_beta	91.268973
_cell_angle_gamma	90.000000
_symmetry_Int_Tables_number 1

loop_
_symmetry_equiv_pos_as_xyz
'x,y,z'

loop_
_atom_site_label
_atom_site_type_symbol
_atom_site_fract_x
_atom_site_fract_y
_atom_site_fract_z
C1	C	0.280493	0.988559	0.535249
C2	C	0.009748	0.047008	-0.015640
C3	C	0.373299	0.040777	0.579869
C4	C	0.104139	0.991115	0.008395
C5	C	0.440114	0.987468	0.673849
C6	C	0.164735	0.009161	0.124477
C7	C	0.228041	0.515155	0.509675
C8	C	0.472282	0.489852	0.030629
C9	C	0.245033	0.611402	0.574338
C10	C	0.486820	0.388064	0.082121
C11	C	0.255135	0.888157	0.582059
C12	C	-0.023634	0.120018	0.077124
C13	C	0.413775	0.881397	0.706342
C14	C	0.127894	0.087721	0.209846
C15	C	0.112118	0.572348	0.723731
C16	C	0.325182	0.397742	0.191652
C17	C	0.089980	0.473428	0.662749
C18	C	0.304292	0.501714	0.144157
C19	C	0.156094	0.441691	0.558903
C20	C	0.383502	0.549566	0.065592
C21	C	0.408277	0.135731	0.510539
C22	C	0.157004	0.928573	0.906745
C23	C	0.138547	0.335843	0.499787
C24	C	0.371470	0.660297	1.020595
C25	C	0.777478	0.994860	0.565653
C26	C	0.525133	-0.016831	0.021637
C27	C	0.886742	0.024394	0.570596
C28	C	0.632776	0.955395	0.039457
C29	C	0.960020	0.953712	0.630579
C30	C	0.692633	0.009225	0.139456
C31	C	0.704436	0.475643	0.544782
C32	C	0.962487	0.465033	0.037932
C33	C	0.743901	0.563807	0.613038
C34	C	0.985971	0.372051	0.106111
C35	C	0.749370	0.895622	0.617740
C36	C	0.485051	0.072334	0.085352
C37	C	0.924239	0.859203	0.686629
C38	C	0.647822	0.102126	0.194454
C39	C	0.585089	0.582662	0.725997
C40	C	0.838163	0.393498	0.238764
C41	C	0.539600	0.492939	0.661961
C42	C	0.810954	0.490616	0.177568
C43	C	0.598119	0.444478	0.559588
C44	C	0.871931	0.524492	0.069536
C45	C	0.928809	0.115198	0.498127
C46	C	0.684446	0.880948	0.952554
C47	C	0.542947	0.380931	0.459643
C48	C	0.831905	0.605974	0.981708
C49	C	0.531234	0.026269	0.743624
C50	C	0.259349	0.949308	0.148856
C51	C	0.997270	0.411906	0.691047
C52	C	0.205664	0.555597	0.165657
C53	C	0.690324	0.060969	0.507017
C54	C	0.786203	0.960783	0.194397
C55	C	0.441901	0.444775	0.700923
C56	C	0.727972	0.556417	0.228931
H1	H	0.224662	1.027683	0.468301
H2	H	0.473954	-0.061152	0.953650
H3	H	0.045077	0.972092	0.633887
H4	H	0.272425	0.497788	0.422294
H5	H	0.015057	0.489632	0.960656
H6	H	0.305191	0.668792	0.544195
H7	H	0.054870	0.322808	0.083807
H8	H	0.180553	0.847809	0.555344
H9	H	0.402704	0.098555	0.069801
H10	H	0.465123	0.835473	0.772909
H11	H	0.172098	0.109583	0.298525
H12	H	0.066614	0.600370	0.806798
H13	H	0.270126	0.357641	0.256448
H14	H	0.963991	0.036094	0.893725
H15	H	0.755351	0.436879	0.474901
H16	H	0.531964	0.523133	0.966462
H17	H	0.824028	0.594880	0.597286
H18	H	0.558553	0.341360	0.062985
H19	H	0.666243	0.868841	0.611030
H20	H	0.902477	0.165550	0.065272
H21	H	0.978093	0.805056	0.739172
H22	H	0.691416	0.150972	0.265635
H23	H	0.542015	0.626532	0.800226
H24	H	0.792629	0.361885	0.319513
H25	H	0.505846	0.180696	0.647465
H26	H	0.598141	0.972490	0.763164
H27	H	0.470965	0.161435	0.826753
H28	H	0.604178	0.140675	0.852292
H29	H	0.203193	1.061321	-0.155884
H30	H	0.278226	0.882597	0.085795
H31	H	0.328615	0.032197	0.306271
H32	H	0.394616	0.919186	0.249261
H33	H	1.113718	0.190724	0.535174
H34	H	0.988784	0.330861	0.653222
H35	H	0.912878	0.526611	0.791594
H36	H	0.849985	0.403073	0.767737
H37	H	0.362661	0.701770	0.195455
H38	H	0.190020	0.631888	0.117061
H39	H	0.127873	0.447411	0.287902
H40	H	0.057404	0.560582	0.238457
H41	H	0.726200	0.124848	0.446339
H42	H	0.650315	0.108712	0.581981
H43	H	0.639660	0.942059	0.377041
H44	H	0.548486	1.040130	0.398553
H45	H	0.827226	0.936765	-0.006941
H46	H	0.804300	0.877820	0.171072
H47	H	0.840506	0.083566	0.311504
H48	H	0.914496	0.966283	0.319358
H49	H	0.410879	0.446826	0.503727
H50	H	0.424463	0.363564	0.667993
H51	H	0.377859	0.565219	0.814202
H52	H	0.304436	0.446301	0.799480
H53	H	0.688591	0.597526	0.050981
H54	H	0.737244	0.643397	0.232333
H55	H	0.628262	0.435209	0.286185
H56	H	0.590202	0.564610	0.329688
N1	N	0.320923	0.836279	0.667779
N2	N	0.035462	0.139627	0.186959
N3	N	0.191208	0.637340	0.683761
N4	N	0.415866	0.344339	0.165056
N5	N	0.819640	0.830587	0.679815
N6	N	0.545744	0.132589	0.169460
N7	N	0.684417	0.618141	0.700278
N8	N	0.925094	0.336908	0.205378
N9	N	0.539431	0.127193	0.792188
N10	N	0.328113	0.966072	0.245429
N11	N	0.916092	0.449328	0.756097
N12	N	0.127633	0.519521	0.237568
N13	N	0.610784	0.998376	0.439046
N14	N	0.850418	1.006298	0.281058
N15	N	0.371318	0.488298	0.777509
N16	N	0.641328	0.516561	0.280776
Ni1	Ni	0.252113	0.747799	0.795319
Ni2	Ni	0.474940	0.236858	0.283608
Ni3	Ni	0.757098	0.730820	0.802353
Ni4	Ni	0.988230	0.232470	0.324253
O1	O	0.109075	0.329281	0.380700
O2	O	0.372007	0.685630	0.901878
O3	O	0.378406	0.151031	0.392180
O4	O	0.158465	0.828640	0.903198
O5	O	0.438797	0.398136	0.437616
O6	O	0.359601	0.736704	1.110122
O7	O	0.028255	0.116758	0.464345
O8	O	0.213418	0.985871	0.823501
O9	O	0.588379	0.318825	0.380390
O10	O	0.880110	0.644576	0.885666
O11	O	0.870282	0.190169	0.444753
O12	O	0.636210	0.818589	0.875368
O13	O	1.148729	0.254800	0.579156
O14	O	0.730352	0.641619	0.991089
O15	O	0.478533	0.203117	0.560503
O16	O	0.792149	0.877168	0.947075
