data_NiPyC2_relax_sc211_meta_functionalized_C-3CH3_pbesol_relax_frozen_parent_atoms_PM
_symmetry_space_group_name_H-M	'P1'
_cell_length_a	12.505617
_cell_length_b	12.523412
_cell_length_c	10.276810
_cell_angle_alpha	90.000000
_cell_angle_beta	91.268973
_cell_angle_gamma	90.000000
_symmetry_Int_Tables_number 1

loop_
_symmetry_equiv_pos_as_xyz
'x,y,z'

loop_
_atom_site_label
_atom_site_type_symbol
_atom_site_fract_x
_atom_site_fract_y
_atom_site_fract_z
C1	C	0.288212	0.970050	0.521984
C2	C	0.038379	0.031106	0.022308
C3	C	0.390634	0.011770	0.546492
C4	C	0.140244	0.987744	0.046146
C5	C	0.451915	0.970202	0.650371
C6	C	0.202520	0.028353	0.149893
C7	C	0.208181	0.529704	0.526384
C8	C	0.458545	0.471409	0.027904
C9	C	0.245137	0.613331	0.606435
C10	C	0.496819	0.388677	0.108617
C11	C	0.249476	0.889206	0.603203
C12	C	0.001069	0.112232	0.104247
C13	C	0.407977	0.889383	0.727552
C14	C	0.159935	0.109547	0.227812
C15	C	0.088862	0.608983	0.727352
C16	C	0.340890	0.391633	0.229394
C17	C	0.046925	0.525079	0.651312
C18	C	0.297658	0.474711	0.152754
C19	C	0.108164	0.484270	0.550116
C20	C	0.357832	0.515656	0.050638
C21	C	0.433310	0.099319	0.466621
C22	C	0.181517	0.899720	0.965672
C23	C	0.067378	0.394474	0.470676
C24	C	0.316043	0.604172	0.969107
C25	C	0.788212	0.970050	0.521984
C26	C	0.538379	0.031106	0.022308
C27	C	0.890634	0.011770	0.546492
C28	C	0.640244	0.987744	0.046146
C29	C	0.951915	0.970202	0.650371
C30	C	0.702520	0.028353	0.149893
C31	C	0.708182	0.529704	0.526384
C32	C	0.958546	0.471409	0.027904
C33	C	0.745137	0.613331	0.606435
C34	C	0.996819	0.388677	0.108617
C35	C	0.749476	0.889206	0.603203
C36	C	0.501069	0.112232	0.104247
C37	C	0.907977	0.889383	0.727552
C38	C	0.659934	0.109547	0.227812
C39	C	0.588862	0.608983	0.727352
C40	C	0.840890	0.391633	0.229394
C41	C	0.546925	0.525079	0.651312
C42	C	0.797658	0.474711	0.152754
C43	C	0.608164	0.484270	0.550116
C44	C	0.857832	0.515656	0.050638
C45	C	0.933310	0.099319	0.466621
C46	C	0.681517	0.899720	0.965672
C47	C	0.567377	0.394474	0.470676
C48	C	0.816043	0.604172	0.969107
C49	C	0.529319	0.072799	0.711106
C50	C	0.593282	1.122863	0.829738
C51	C	0.449801	0.171996	0.704708
C52	C	0.642660	1.033026	0.650851
C53	C	0.246974	0.939954	0.231696
C54	C	0.356904	-0.083517	0.263595
C55	C	0.166650	0.860415	0.269739
C56	C	0.361257	-0.060958	-0.018491
C57	C	0.944437	0.449421	0.669675
C58	C	0.890144	0.488834	0.783063
C59	C	0.969659	0.324933	0.713737
C60	C	0.896585	0.427817	0.537697
C61	C	0.552400	0.527417	0.963456
C62	C	0.642659	0.449930	0.941173
C63	C	0.467969	0.482974	0.877526
C64	C	0.546924	0.633952	1.034034
C65	C	0.694942	0.051806	0.517507
C66	C	0.568131	0.925019	0.387356
C67	C	0.725286	0.170774	0.532778
C68	C	0.648797	0.995356	0.404604
C69	C	0.764501	0.932097	0.227949
C70	C	0.879953	-0.063359	0.260709
C71	C	0.726622	0.819457	0.228373
C72	C	0.865909	-0.067805	-0.020049
C73	C	0.422017	0.521429	0.655475
C74	C	0.390801	0.546914	0.799672
C75	C	0.417796	0.592130	0.540606
C76	C	0.354380	0.412452	0.655107
C77	C	0.049963	0.536319	0.971525
C78	C	0.144380	0.462567	0.951042
C79	C	0.970930	0.476592	0.883584
C80	C	0.042962	0.642354	1.041708
H1	H	0.237124	0.999575	0.443113
H2	H	0.486538	0.002692	0.943499
H3	H	0.032063	0.998805	0.673520
H4	H	0.258700	0.500895	0.449282
H5	H	0.322641	0.650506	0.592635
H6	H	0.074968	0.352851	0.095028
H7	H	0.170154	0.855123	0.588560
H8	H	0.422322	0.147732	0.089886
H9	H	0.453370	0.855173	0.808761
H10	H	0.206239	0.143103	0.308797
H11	H	0.043729	0.642944	0.806608
H12	H	0.296378	0.357526	0.309051
H13	H	0.218952	0.505201	0.175264
H14	H	0.986538	0.002692	0.943499
H15	H	0.758700	0.500895	0.449282
H16	H	0.822641	0.650506	0.592635
H17	H	0.574968	0.352851	0.095028
H18	H	0.670154	0.855123	0.588560
H19	H	0.922322	0.147732	0.089886
H20	H	0.953370	0.855173	0.808761
H21	H	0.706240	0.143103	0.308797
H22	H	0.543729	0.642944	0.806608
H23	H	0.796378	0.357526	0.309051
H24	H	0.718952	0.505201	0.175264
H25	H	0.636320	1.189694	0.784451
H26	H	0.542452	1.159689	0.902418
H27	H	0.654633	1.072620	0.874394
H28	H	0.407483	0.170006	0.796953
H29	H	0.497063	0.245343	0.700454
H30	H	0.388352	0.173991	0.628044
H31	H	0.628616	0.950256	0.677780
H32	H	0.557793	0.119936	0.572324
H33	H	0.707826	0.059577	0.714874
H34	H	0.413598	-0.018418	0.251663
H35	H	0.377355	-0.146841	0.193901
H36	H	0.364121	-0.122608	0.358222
H37	H	0.192533	0.818133	0.357943
H38	H	0.162532	0.800421	0.190575
H39	H	0.086509	0.893819	0.276928
H40	H	0.350996	-0.004928	0.061145
H41	H	0.358584	0.982224	0.888551
H42	H	0.430807	0.888817	-0.005034
H43	H	0.982805	0.708980	0.458614
H44	H	0.803755	0.486771	0.792181
H45	H	0.810120	0.460218	0.979907
H46	H	1.056525	0.311258	0.721010
H47	H	0.932809	0.305089	0.805883
H48	H	0.937073	0.269644	0.641828
H49	H	0.891317	0.496316	0.471373
H50	H	0.825193	0.377103	0.537993
H51	H	0.750311	0.470027	0.597406
H52	H	0.689694	0.431552	0.027843
H53	H	0.690788	0.482998	0.863943
H54	H	0.612342	0.372942	0.905666
H55	H	0.483662	0.404915	0.835613
H56	H	0.563392	0.456253	0.724181
H57	H	0.533806	0.784428	0.600633
H58	H	0.603539	0.632145	0.116043
H59	H	0.468730	0.646926	1.076080
H60	H	0.562502	0.704118	0.974842
H61	H	0.562675	0.875904	0.300968
H62	H	0.493075	0.792074	0.142916
H63	H	0.506322	0.917186	0.458552
H64	H	0.797371	0.175096	0.594168
H65	H	0.663608	0.212762	0.587138
H66	H	0.736261	0.215561	0.443882
H67	H	0.719544	0.973138	0.335738
H68	H	0.915528	0.015296	0.253396
H69	H	0.526692	-0.165573	0.112569
H70	H	0.773936	0.069730	0.108683
H71	H	0.922534	-0.120289	0.199685
H72	H	0.892883	-0.095349	0.358898
H73	H	0.717259	0.795130	0.330299
H74	H	0.789175	0.768499	0.189351
H75	H	0.653270	0.803390	0.173837
H76	H	0.865864	-0.016465	0.064047
H77	H	0.861665	0.979732	0.890271
H78	H	0.933411	0.877606	-0.014594
H79	H	0.311360	0.457910	0.980448
H80	H	0.309071	0.518370	0.803598
H81	H	0.557212	0.772755	0.534749
H82	H	0.462344	0.666574	0.545497
H83	H	0.395858	0.561115	0.444380
H84	H	0.418184	0.395468	0.530690
H85	H	0.399207	0.345963	0.697578
H86	H	0.316368	0.386144	0.562682
H87	H	0.282048	0.421504	0.711215
H88	H	0.191135	0.451605	0.038876
H89	H	0.191842	0.491160	0.870138
H90	H	0.121767	0.380790	0.924750
H91	H	1.015233	0.407550	0.856582
H92	H	0.093477	0.475283	0.732030
H93	H	0.978275	0.733157	0.525413
H94	H	0.100925	0.639860	0.122683
H95	H	-0.035045	0.655529	1.083735
H96	H	0.060043	0.711600	0.981361
N1	N	0.308437	0.851253	0.704828
N2	N	0.060729	0.148857	0.206052
N3	N	0.186542	0.650310	0.705838
N4	N	0.438810	0.350928	0.208041
N5	N	0.808437	0.851253	0.704828
N6	N	0.560729	0.148857	0.206052
N7	N	0.686543	0.650310	0.705838
N8	N	0.938810	0.350928	0.208041
Ni1	Ni	0.247002	0.751486	0.836326
Ni2	Ni	0.499972	0.247999	0.339178
Ni3	Ni	0.747002	0.751486	0.836326
Ni4	Ni	0.999972	0.247999	0.339178
O1	O	0.122778	0.347689	0.382873
O2	O	0.371208	0.650977	0.881292
O3	O	0.377630	0.147507	0.377178
O4	O	0.125098	0.852352	0.876261
O5	O	0.473069	0.356160	0.482994
O6	O	0.221137	0.641415	0.979877
O7	O	0.028840	0.135158	0.481078
O8	O	0.276686	0.862758	0.979399
O9	O	0.622779	0.347689	0.382873
O10	O	0.871208	0.650977	0.881292
O11	O	0.877630	0.147507	0.377178
O12	O	0.625098	0.852352	0.876261
O13	O	0.973069	0.356160	0.482994
O14	O	0.721137	0.641415	0.979877
O15	O	0.528840	0.135158	0.481078
O16	O	0.776686	0.862758	0.979399
