data_NiPyC2_relax_sc211_meta_functionalized_N-2CH3_pbesol_relax_frozen_parent_atoms_PM
_symmetry_space_group_name_H-M	'P1'
_cell_length_a	12.505617
_cell_length_b	12.523412
_cell_length_c	10.276810
_cell_angle_alpha	90.000000
_cell_angle_beta	91.268973
_cell_angle_gamma	90.000000
_symmetry_Int_Tables_number 1

loop_
_symmetry_equiv_pos_as_xyz
'x,y,z'

loop_
_atom_site_label
_atom_site_type_symbol
_atom_site_fract_x
_atom_site_fract_y
_atom_site_fract_z
C1	C	0.288212	0.970050	0.521984
C2	C	0.038379	0.031106	0.022308
C3	C	0.390634	0.011770	0.546492
C4	C	0.140244	0.987744	0.046146
C5	C	0.451915	0.970202	0.650371
C6	C	0.202520	0.028353	0.149893
C7	C	0.208181	0.529704	0.526384
C8	C	0.458545	0.471409	0.027904
C9	C	0.245137	0.613331	0.606435
C10	C	0.496819	0.388677	0.108617
C11	C	0.249476	0.889206	0.603203
C12	C	0.001069	0.112232	0.104247
C13	C	0.407977	0.889383	0.727552
C14	C	0.159935	0.109547	0.227812
C15	C	0.088862	0.608983	0.727352
C16	C	0.340890	0.391633	0.229394
C17	C	0.046925	0.525079	0.651312
C18	C	0.297658	0.474711	0.152754
C19	C	0.108164	0.484270	0.550116
C20	C	0.357832	0.515656	0.050638
C21	C	0.433310	0.099319	0.466621
C22	C	0.181517	0.899720	0.965672
C23	C	0.067378	0.394474	0.470676
C24	C	0.316043	0.604172	0.969107
C25	C	0.788212	0.970050	0.521984
C26	C	0.538379	0.031106	0.022308
C27	C	0.890634	0.011770	0.546492
C28	C	0.640244	0.987744	0.046146
C29	C	0.951915	0.970202	0.650371
C30	C	0.702520	0.028353	0.149893
C31	C	0.708182	0.529704	0.526384
C32	C	0.958546	0.471409	0.027904
C33	C	0.745137	0.613331	0.606435
C34	C	0.996819	0.388677	0.108617
C35	C	0.749476	0.889206	0.603203
C36	C	0.501069	0.112232	0.104247
C37	C	0.907977	0.889383	0.727552
C38	C	0.659934	0.109547	0.227812
C39	C	0.588862	0.608983	0.727352
C40	C	0.840890	0.391633	0.229394
C41	C	0.546925	0.525079	0.651312
C42	C	0.797658	0.474711	0.152754
C43	C	0.608164	0.484270	0.550116
C44	C	0.857832	0.515656	0.050638
C45	C	0.933310	0.099319	0.466621
C46	C	0.681517	0.899720	0.965672
C47	C	0.567377	0.394474	0.470676
C48	C	0.816043	0.604172	0.969107
C49	C	0.147947	-0.101855	0.365630
C50	C	0.336378	-0.102685	0.316673
C51	C	0.867141	0.031889	0.916619
C52	C	0.966046	0.865935	1.002500
C53	C	1.079982	0.377216	0.791383
C54	C	0.888720	0.421353	0.744388
C55	C	0.238081	0.643306	0.255241
C56	C	0.152791	0.574386	0.055560
C57	C	0.130105	1.051665	0.735005
C58	C	-0.026573	0.159107	0.721546
C59	C	0.372940	0.037019	0.901869
C60	C	0.464695	0.868148	0.998847
C61	C	0.880597	0.530192	0.434350
C62	C	0.776718	0.363724	0.498816
C63	C	0.620816	0.545409	0.239758
C64	C	0.769194	0.663545	0.227121
H1	H	0.282340	0.998665	0.172602
H2	H	0.258700	0.500895	0.449282
H3	H	0.008641	0.500397	0.950548
H4	H	0.322641	0.650506	0.592635
H5	H	0.074968	0.352851	0.095028
H6	H	0.170154	0.855123	0.588560
H7	H	0.422322	0.147732	0.089886
H8	H	0.453370	0.855173	0.808761
H9	H	0.206239	0.143103	0.308797
H10	H	0.043729	0.642944	0.806608
H11	H	0.296378	0.357526	0.309051
H12	H	0.468672	0.493231	0.673502
H13	H	0.737124	0.999575	0.443113
H14	H	0.532062	0.998805	0.673520
H15	H	0.782340	0.998665	0.172602
H16	H	0.508641	0.500397	0.950548
H17	H	0.822641	0.650506	0.592635
H18	H	0.574968	0.352851	0.095028
H19	H	0.670154	0.855123	0.588560
H20	H	0.922322	0.147732	0.089886
H21	H	0.953370	0.855173	0.808761
H22	H	0.706240	0.143103	0.308797
H23	H	0.543729	0.642944	0.806608
H24	H	0.796378	0.357526	0.309051
H25	H	0.135313	-0.180447	0.410195
H26	H	0.092998	-0.042572	0.404525
H27	H	0.136316	0.890890	0.260420
H28	H	0.419485	0.910745	0.346461
H29	H	0.314131	0.856006	0.226722
H30	H	0.303830	0.120995	0.367491
H31	H	0.898514	0.109233	0.892821
H32	H	0.825607	-0.003040	0.833842
H33	H	0.809797	0.042266	0.992120
H34	H	1.024637	0.848765	1.079578
H35	H	0.919592	0.801754	0.960846
H36	H	0.953381	0.821483	0.668610
H37	H	1.045300	0.332751	0.871526
H38	H	1.148133	0.426610	0.824748
H39	H	1.112088	0.321311	0.719088
H40	H	0.840201	0.492417	0.725558
H41	H	0.875376	0.387538	0.841039
H42	H	0.866784	0.359678	0.670637
H43	H	0.287655	0.622392	0.340011
H44	H	0.283892	0.691793	0.187458
H45	H	0.164825	0.684801	0.283582
H46	H	0.141310	0.499901	1.001882
H47	H	0.150433	0.498558	0.236849
H48	H	0.079530	0.619689	0.073270
H49	H	0.159505	0.971047	0.744598
H50	H	0.168575	1.091318	0.651840
H51	H	0.147833	1.098666	0.823121
H52	H	-0.112939	0.160095	0.704515
H53	H	-0.004068	0.187474	0.819228
H54	H	0.011631	0.212072	0.651550
H55	H	0.324484	0.072556	0.978116
H56	H	0.413440	0.099341	0.846974
H57	H	0.318838	-0.008260	0.840461
H58	H	0.520783	0.850551	1.078525
H59	H	0.420823	0.803359	0.954698
H60	H	0.459922	0.829312	0.664832
H61	H	0.853134	0.608425	0.404446
H62	H	0.924890	0.492602	0.357757
H63	H	0.933293	0.539439	0.520981
H64	H	0.720917	0.342671	0.573928
H65	H	0.825807	0.302335	0.457934
H66	H	0.743826	0.101911	0.098214
H67	H	0.598272	0.462792	0.250062
H68	H	0.575301	0.582333	0.157709
H69	H	0.604173	0.591372	0.328058
H70	H	0.854841	0.669736	0.209983
H71	H	0.749177	0.688682	0.326309
H72	H	0.725195	0.716028	0.159145
N1	N	0.308437	0.851253	0.704828
N2	N	0.060729	0.148857	0.206052
N3	N	0.186542	0.650310	0.705838
N4	N	0.438810	0.350928	0.208041
N5	N	0.808437	0.851253	0.704828
N6	N	0.560729	0.148857	0.206052
N7	N	0.686543	0.650310	0.705838
N8	N	0.938810	0.350928	0.208041
N9	N	0.259091	-0.066104	0.391363
N10	N	0.956660	0.968855	0.970049
N11	N	0.998994	0.445415	0.731953
N12	N	0.205673	0.542598	0.183695
N13	N	0.017403	0.052119	0.710001
N14	N	0.457025	0.970969	0.965588
N15	N	0.787618	0.468527	0.473364
N16	N	0.731294	0.554070	0.211359
Ni1	Ni	0.247002	0.751486	0.836326
Ni2	Ni	0.499972	0.247999	0.339178
Ni3	Ni	0.747002	0.751486	0.836326
Ni4	Ni	0.999972	0.247999	0.339178
O1	O	0.122778	0.347689	0.382873
O2	O	0.371208	0.650977	0.881292
O3	O	0.377630	0.147507	0.377178
O4	O	0.125098	0.852352	0.876261
O5	O	0.473069	0.356160	0.482994
O6	O	0.221137	0.641415	0.979877
O7	O	0.028840	0.135158	0.481078
O8	O	0.276686	0.862758	0.979399
O9	O	0.622779	0.347689	0.382873
O10	O	0.871208	0.650977	0.881292
O11	O	0.877630	0.147507	0.377178
O12	O	0.625098	0.852352	0.876261
O13	O	0.973069	0.356160	0.482994
O14	O	0.721137	0.641415	0.979877
O15	O	0.528840	0.135158	0.481078
O16	O	0.776686	0.862758	0.979399
