data_NiPyC2_relax_sc211_meta_functionalized_S-CH3_pbesol_relax_frozen_parent_atoms_PM
_symmetry_space_group_name_H-M	'P1'
_cell_length_a	37.516850
_cell_length_b	37.570237
_cell_length_c	30.830430
_cell_angle_alpha	90.000000
_cell_angle_beta	91.268973
_cell_angle_gamma	90.000000
_symmetry_Int_Tables_number 1

loop_
_symmetry_equiv_pos_as_xyz
'x,y,z'

loop_
_atom_site_label
_atom_site_type_symbol
_atom_site_fract_x
_atom_site_fract_y
_atom_site_fract_z
C1	C	0.096071	0.323350	0.173995
C2	C	0.012793	0.010369	0.007436
C3	C	0.130211	0.003923	0.182164
C4	C	0.046748	0.329248	0.015382
C5	C	0.150638	0.323401	0.216790
C6	C	0.067507	0.009451	0.049964
C7	C	0.069394	0.176568	0.175461
C8	C	0.152848	0.157136	0.009301
C9	C	0.081712	0.204444	0.202145
C10	C	0.165606	0.129559	0.036206
C11	C	0.083159	0.296402	0.201068
C12	C	0.000356	0.037411	0.034749
C13	C	0.135992	0.296461	0.242517
C14	C	0.053312	0.036516	0.075937
C15	C	0.029621	0.202994	0.242451
C16	C	0.113630	0.130544	0.076465
C17	C	0.015642	0.175026	0.217104
C18	C	0.099219	0.158237	0.050918
C19	C	0.036055	0.161423	0.183372
C20	C	0.119277	0.171885	0.016879
C21	C	0.144437	0.033106	0.155540
C22	C	0.060506	0.299907	0.321891
C23	C	0.022459	0.131491	0.156892
C24	C	0.105348	0.201391	0.323036
C25	C	0.262737	0.323350	0.173995
C26	C	0.179460	0.010369	0.007436
C27	C	0.296878	0.003923	0.182164
C28	C	0.213415	0.329248	0.015382
C29	C	0.317305	0.323401	0.216790
C30	C	0.234173	0.009451	0.049964
C31	C	0.236061	0.176568	0.175461
C32	C	0.319515	0.157136	0.009301
C33	C	0.248379	0.204444	0.202145
C34	C	0.332273	0.129559	0.036206
C35	C	0.249825	0.296402	0.201068
C36	C	0.167023	0.037411	0.034749
C37	C	0.302659	0.296461	0.242517
C38	C	0.219978	0.036516	0.075937
C39	C	0.196287	0.202994	0.242451
C40	C	0.280297	0.130544	0.076465
C41	C	0.182308	0.175026	0.217104
C42	C	0.265886	0.158237	0.050918
C43	C	0.202721	0.161423	0.183372
C44	C	0.285944	0.171885	0.016879
C45	C	0.311103	0.033106	0.155540
C46	C	0.227172	0.299907	0.321891
C47	C	0.189126	0.131491	0.156892
C48	C	0.272014	0.201391	0.323036
C49	C	0.064104	0.008330	0.157970
C50	C	0.101745	0.278761	0.080072
C51	C	0.314681	0.159513	0.230713
C52	C	0.177292	0.169020	0.310451
C53	C	0.231319	0.002891	0.150467
C54	C	0.193812	0.046765	0.268417
C55	C	0.144636	0.164227	0.221854
C56	C	0.231494	0.172156	0.066494
H1	H	0.010688	0.332935	0.224507
H2	H	0.086233	0.166965	0.149761
H3	H	0.002880	0.166799	0.316849
H4	H	0.107547	0.216835	0.197545
H5	H	0.024989	0.117617	0.031676
H6	H	0.056718	0.285041	0.196187
H7	H	0.140774	0.049244	0.029962
H8	H	0.151123	0.285058	0.269587
H9	H	0.068746	0.047701	0.102932
H10	H	0.014576	0.214315	0.268869
H11	H	0.098793	0.119175	0.103017
H12	H	0.072984	0.168400	0.058421
H13	H	0.328846	0.000897	0.314500
H14	H	0.177354	0.332935	0.224507
H15	H	0.260780	0.332888	0.057534
H16	H	0.252900	0.166965	0.149761
H17	H	0.274214	0.216835	0.197545
H18	H	0.191656	0.117617	0.031676
H19	H	0.223385	0.285041	0.196187
H20	H	0.307441	0.049244	0.029962
H21	H	0.317790	0.285058	0.269587
H22	H	0.235413	0.047701	0.102932
H23	H	0.181243	0.214315	0.268869
H24	H	0.265459	0.119175	0.103017
H25	H	0.017632	0.047646	0.190771
H26	H	0.048446	0.009851	0.187824
H27	H	0.069547	0.035636	0.149225
H28	H	0.126092	0.264728	0.071185
H29	H	0.098651	0.278351	0.115377
H30	H	0.078528	0.267363	0.063522
H31	H	0.284974	0.110892	0.260634
H32	H	0.302101	0.176590	0.254917
H33	H	0.296093	0.155395	0.203105
H34	H	0.235144	0.221351	0.359219
H35	H	0.190697	0.193458	-0.011330
H36	H	0.159522	0.178354	-0.048752
H37	H	0.187510	0.041890	0.189202
H38	H	0.209117	-0.001078	0.172588
H39	H	0.233415	0.030917	0.144185
H40	H	0.181870	0.061930	0.241200
H41	H	0.203371	0.066344	0.292397
H42	H	0.216170	0.029721	0.258594
H43	H	0.105414	0.116308	0.219418
H44	H	0.130419	0.182870	0.242823
H45	H	0.132030	0.164290	0.189591
H46	H	0.198617	0.222238	0.088144
H47	H	0.222251	0.155612	0.093291
H48	H	0.210909	0.172064	0.374253
N1	N	0.102812	0.283751	0.234943
N2	N	0.020243	0.049619	0.068684
N3	N	0.062181	0.216770	0.235279
N4	N	0.146270	0.116976	0.069347
N5	N	0.269479	0.283751	0.234943
N6	N	0.186910	0.049619	0.068684
N7	N	0.228848	0.216770	0.235279
N8	N	0.312937	0.116976	0.069347
Ni1	Ni	0.082334	0.250495	0.278775
Ni2	Ni	0.166657	0.082666	0.113059
Ni3	Ni	0.249001	0.250495	0.278775
Ni4	Ni	0.333324	0.082666	0.113059
O1	O	0.040926	0.115896	0.127624
O2	O	0.123736	0.216992	0.293764
O3	O	0.125877	0.049169	0.125726
O4	O	0.041699	0.284117	0.292087
O5	O	0.157690	0.118720	0.160998
O6	O	0.073712	0.213805	0.326626
O7	O	0.009613	0.045053	0.160359
O8	O	0.092229	0.287586	0.326466
O9	O	0.207593	0.115896	0.127624
O10	O	0.290403	0.216992	0.293764
O11	O	0.292543	0.049169	0.125726
O12	O	0.208366	0.284117	0.292087
O13	O	0.324356	0.118720	0.160998
O14	O	0.240379	0.213805	0.326626
O15	O	0.176280	0.045053	0.160359
O16	O	0.258895	0.287586	0.326466
S1	S	0.036065	-0.017119	0.122958
S2	S	0.108774	0.323973	0.064377
S3	S	0.320336	0.115757	0.254493
S4	S	0.209555	0.140047	0.290597
S5	S	0.215566	-0.025291	0.107458
S6	S	0.158256	0.354730	0.291733
S7	S	0.136654	0.119816	0.242158
S8	S	0.234370	0.218452	0.084559
C57	C	0.096071	0.323350	0.507328
C58	C	0.012793	0.010369	0.340769
C59	C	0.130211	0.003923	0.515497
C60	C	0.046748	0.329248	0.348715
C61	C	0.150638	0.323401	0.550124
C62	C	0.067507	0.009451	0.383298
C63	C	0.069394	0.176568	0.508795
C64	C	0.152848	0.157136	0.342635
C65	C	0.081712	0.204444	0.535478
C66	C	0.165606	0.129559	0.369539
C67	C	0.083159	0.296402	0.534401
C68	C	0.000356	0.037411	0.368082
C69	C	0.135992	0.296461	0.575851
C70	C	0.053312	0.036516	0.409271
C71	C	0.029621	0.202994	0.575784
C72	C	0.113630	0.130544	0.409798
C73	C	0.015642	0.175026	0.550437
C74	C	0.099219	0.158237	0.384251
C75	C	0.036055	0.161423	0.516705
C76	C	0.119277	0.171885	0.350213
C77	C	0.144437	0.033106	0.488874
C78	C	0.060506	0.299907	0.655224
C79	C	0.022459	0.131491	0.490225
C80	C	0.105348	0.201391	0.656369
C81	C	0.262737	0.323350	0.507328
C82	C	0.179460	0.010369	0.340769
C83	C	0.296878	0.003923	0.515497
C84	C	0.213415	0.329248	0.348715
C85	C	0.317305	0.323401	0.550124
C86	C	0.234173	0.009451	0.383298
C87	C	0.236061	0.176568	0.508795
C88	C	0.319515	0.157136	0.342635
C89	C	0.248379	0.204444	0.535478
C90	C	0.332273	0.129559	0.369539
C91	C	0.249825	0.296402	0.534401
C92	C	0.167023	0.037411	0.368082
C93	C	0.302659	0.296461	0.575851
C94	C	0.219978	0.036516	0.409271
C95	C	0.196287	0.202994	0.575784
C96	C	0.280297	0.130544	0.409798
C97	C	0.182308	0.175026	0.550437
C98	C	0.265886	0.158237	0.384251
C99	C	0.202721	0.161423	0.516705
C100	C	0.285944	0.171885	0.350213
C101	C	0.311103	0.033106	0.488874
C102	C	0.227172	0.299907	0.655224
C103	C	0.189126	0.131491	0.490225
C104	C	0.272014	0.201391	0.656369
C105	C	0.064104	0.008330	0.491303
C106	C	0.101745	0.278761	0.413406
C107	C	0.314681	0.159513	0.564046
C108	C	0.177292	0.169020	0.643784
C109	C	0.231319	0.002891	0.483800
C110	C	0.193812	0.046765	0.601750
C111	C	0.144636	0.164227	0.555188
C112	C	0.231494	0.172156	0.399827
H49	H	0.010688	0.332935	0.557840
H50	H	0.086233	0.166965	0.483094
H51	H	0.002880	0.166799	0.650183
H52	H	0.107547	0.216835	0.530878
H53	H	0.024989	0.117617	0.365009
H54	H	0.056718	0.285041	0.529520
H55	H	0.140774	0.049244	0.363295
H56	H	0.151123	0.285058	0.602920
H57	H	0.068746	0.047701	0.436266
H58	H	0.014576	0.214315	0.602203
H59	H	0.098793	0.119175	0.436350
H60	H	0.072984	0.168400	0.391755
H61	H	0.328846	0.000897	0.647833
H62	H	0.177354	0.332935	0.557840
H63	H	0.260780	0.332888	0.390867
H64	H	0.252900	0.166965	0.483094
H65	H	0.274214	0.216835	0.530878
H66	H	0.191656	0.117617	0.365009
H67	H	0.223385	0.285041	0.529520
H68	H	0.307441	0.049244	0.363295
H69	H	0.317790	0.285058	0.602920
H70	H	0.235413	0.047701	0.436266
H71	H	0.181243	0.214315	0.602203
H72	H	0.265459	0.119175	0.436350
H73	H	0.017632	0.047646	0.524104
H74	H	0.048446	0.009851	0.521157
H75	H	0.069547	0.035636	0.482559
H76	H	0.126092	0.264728	0.404519
H77	H	0.098651	0.278351	0.448710
H78	H	0.078528	0.267363	0.396856
H79	H	0.284974	0.110892	0.593967
H80	H	0.302101	0.176590	0.588250
H81	H	0.296093	0.155395	0.536438
H82	H	0.235144	0.221351	0.692553
H83	H	0.190697	0.193458	0.322003
H84	H	0.159522	0.178354	0.284582
H85	H	0.187510	0.041890	0.522536
H86	H	0.209117	-0.001078	0.505921
H87	H	0.233415	0.030917	0.477519
H88	H	0.181870	0.061930	0.574533
H89	H	0.203371	0.066344	0.625730
H90	H	0.216170	0.029721	0.591928
H91	H	0.105414	0.116308	0.552751
H92	H	0.130419	0.182870	0.576156
H93	H	0.132030	0.164290	0.522924
H94	H	0.198617	0.222238	0.421478
H95	H	0.222251	0.155612	0.426624
H96	H	0.210909	0.172064	0.707586
N9	N	0.102812	0.283751	0.568276
N10	N	0.020243	0.049619	0.402017
N11	N	0.062181	0.216770	0.568613
N12	N	0.146270	0.116976	0.402680
N13	N	0.269479	0.283751	0.568276
N14	N	0.186910	0.049619	0.402017
N15	N	0.228848	0.216770	0.568613
N16	N	0.312937	0.116976	0.402680
Ni5	Ni	0.082334	0.250495	0.612109
Ni6	Ni	0.166657	0.082666	0.446393
Ni7	Ni	0.249001	0.250495	0.612109
Ni8	Ni	0.333324	0.082666	0.446393
O17	O	0.040926	0.115896	0.460958
O18	O	0.123736	0.216992	0.627097
O19	O	0.125877	0.049169	0.459059
O20	O	0.041699	0.284117	0.625420
O21	O	0.157690	0.118720	0.494331
O22	O	0.073712	0.213805	0.659959
O23	O	0.009613	0.045053	0.493693
O24	O	0.092229	0.287586	0.659800
O25	O	0.207593	0.115896	0.460958
O26	O	0.290403	0.216992	0.627097
O27	O	0.292543	0.049169	0.459059
O28	O	0.208366	0.284117	0.625420
O29	O	0.324356	0.118720	0.494331
O30	O	0.240379	0.213805	0.659959
O31	O	0.176280	0.045053	0.493693
O32	O	0.258895	0.287586	0.659800
S9	S	0.036065	-0.017119	0.456291
S10	S	0.108774	0.323973	0.397710
S11	S	0.320336	0.115757	0.587826
S12	S	0.209555	0.140047	0.623931
S13	S	0.215566	-0.025291	0.440792
S14	S	0.158256	0.354730	0.625066
S15	S	0.136654	0.119816	0.575491
S16	S	0.234370	0.218452	0.417892
C113	C	0.096071	0.323350	0.840661
C114	C	0.012793	0.010369	0.674103
C115	C	0.130211	0.003923	0.848831
C116	C	0.046748	0.329248	0.682049
C117	C	0.150638	0.323401	0.883457
C118	C	0.067507	0.009451	0.716631
C119	C	0.069394	0.176568	0.842128
C120	C	0.152848	0.157136	0.675968
C121	C	0.081712	0.204444	0.868812
C122	C	0.165606	0.129559	0.702872
C123	C	0.083159	0.296402	0.867734
C124	C	0.000356	0.037411	0.701416
C125	C	0.135992	0.296461	0.909184
C126	C	0.053312	0.036516	0.742604
C127	C	0.029621	0.202994	0.909117
C128	C	0.113630	0.130544	0.743131
C129	C	0.015642	0.175026	0.883771
C130	C	0.099219	0.158237	0.717585
C131	C	0.036055	0.161423	0.850039
C132	C	0.119277	0.171885	0.683546
C133	C	0.144437	0.033106	0.822207
C134	C	0.060506	0.299907	0.988557
C135	C	0.022459	0.131491	0.823559
C136	C	0.105348	0.201391	0.989702
C137	C	0.262737	0.323350	0.840661
C138	C	0.179460	0.010369	0.674103
C139	C	0.296878	0.003923	0.848831
C140	C	0.213415	0.329248	0.682049
C141	C	0.317305	0.323401	0.883457
C142	C	0.234173	0.009451	0.716631
C143	C	0.236061	0.176568	0.842128
C144	C	0.319515	0.157136	0.675968
C145	C	0.248379	0.204444	0.868812
C146	C	0.332273	0.129559	0.702872
C147	C	0.249825	0.296402	0.867734
C148	C	0.167023	0.037411	0.701416
C149	C	0.302659	0.296461	0.909184
C150	C	0.219978	0.036516	0.742604
C151	C	0.196287	0.202994	0.909117
C152	C	0.280297	0.130544	0.743131
C153	C	0.182308	0.175026	0.883771
C154	C	0.265886	0.158237	0.717585
C155	C	0.202721	0.161423	0.850039
C156	C	0.285944	0.171885	0.683546
C157	C	0.311103	0.033106	0.822207
C158	C	0.227172	0.299907	0.988557
C159	C	0.189126	0.131491	0.823559
C160	C	0.272014	0.201391	0.989702
C161	C	0.064104	0.008330	0.824636
C162	C	0.101745	0.278761	0.746739
C163	C	0.314681	0.159513	0.897380
C164	C	0.177292	0.169020	0.977117
C165	C	0.231319	0.002891	0.817133
C166	C	0.193812	0.046765	0.935083
C167	C	0.144636	0.164227	0.888521
C168	C	0.231494	0.172156	0.733161
H97	H	0.010688	0.332935	0.891173
H98	H	0.086233	0.166965	0.816427
H99	H	0.002880	0.166799	0.983516
H100	H	0.107547	0.216835	0.864212
H101	H	0.024989	0.117617	0.698343
H102	H	0.056718	0.285041	0.862853
H103	H	0.140774	0.049244	0.696629
H104	H	0.151123	0.285058	0.936254
H105	H	0.068746	0.047701	0.769599
H106	H	0.014576	0.214315	0.935536
H107	H	0.098793	0.119175	0.769684
H108	H	0.072984	0.168400	0.725088
H109	H	0.328846	0.000897	0.981166
H110	H	0.177354	0.332935	0.891173
H111	H	0.260780	0.332888	0.724201
H112	H	0.252900	0.166965	0.816427
H113	H	0.274214	0.216835	0.864212
H114	H	0.191656	0.117617	0.698343
H115	H	0.223385	0.285041	0.862853
H116	H	0.307441	0.049244	0.696629
H117	H	0.317790	0.285058	0.936254
H118	H	0.235413	0.047701	0.769599
H119	H	0.181243	0.214315	0.935536
H120	H	0.265459	0.119175	0.769684
H121	H	0.017632	0.047646	0.857437
H122	H	0.048446	0.009851	0.854490
H123	H	0.069547	0.035636	0.815892
H124	H	0.126092	0.264728	0.737852
H125	H	0.098651	0.278351	0.782044
H126	H	0.078528	0.267363	0.730189
H127	H	0.284974	0.110892	0.927301
H128	H	0.302101	0.176590	0.921583
H129	H	0.296093	0.155395	0.869771
H130	H	0.235144	0.221351	1.025886
H131	H	0.190697	0.193458	0.655336
H132	H	0.159522	0.178354	0.617915
H133	H	0.187510	0.041890	0.855869
H134	H	0.209117	-0.001078	0.839255
H135	H	0.233415	0.030917	0.810852
H136	H	0.181870	0.061930	0.907867
H137	H	0.203371	0.066344	0.959064
H138	H	0.216170	0.029721	0.925261
H139	H	0.105414	0.116308	0.886085
H140	H	0.130419	0.182870	0.909489
H141	H	0.132030	0.164290	0.856257
H142	H	0.198617	0.222238	0.754811
H143	H	0.222251	0.155612	0.759957
H144	H	0.210909	0.172064	1.040920
N17	N	0.102812	0.283751	0.901609
N18	N	0.020243	0.049619	0.735351
N19	N	0.062181	0.216770	0.901946
N20	N	0.146270	0.116976	0.736014
N21	N	0.269479	0.283751	0.901609
N22	N	0.186910	0.049619	0.735351
N23	N	0.228848	0.216770	0.901946
N24	N	0.312937	0.116976	0.736014
Ni9	Ni	0.082334	0.250495	0.945442
Ni10	Ni	0.166657	0.082666	0.779726
Ni11	Ni	0.249001	0.250495	0.945442
Ni12	Ni	0.333324	0.082666	0.779726
O33	O	0.040926	0.115896	0.794291
O34	O	0.123736	0.216992	0.960431
O35	O	0.125877	0.049169	0.792393
O36	O	0.041699	0.284117	0.958754
O37	O	0.157690	0.118720	0.827665
O38	O	0.073712	0.213805	0.993292
O39	O	0.009613	0.045053	0.827026
O40	O	0.092229	0.287586	0.993133
O41	O	0.207593	0.115896	0.794291
O42	O	0.290403	0.216992	0.960431
O43	O	0.292543	0.049169	0.792393
O44	O	0.208366	0.284117	0.958754
O45	O	0.324356	0.118720	0.827665
O46	O	0.240379	0.213805	0.993292
O47	O	0.176280	0.045053	0.827026
O48	O	0.258895	0.287586	0.993133
S17	S	0.036065	-0.017119	0.789625
S18	S	0.108774	0.323973	0.731044
S19	S	0.320336	0.115757	0.921160
S20	S	0.209555	0.140047	0.957264
S21	S	0.215566	-0.025291	0.774125
S22	S	0.158256	0.354730	0.958399
S23	S	0.136654	0.119816	0.908824
S24	S	0.234370	0.218452	0.751226
C169	C	0.096071	0.656683	0.173995
C170	C	0.012793	0.343702	0.007436
C171	C	0.130211	0.337257	0.182164
C172	C	0.046748	0.662581	0.015382
C173	C	0.150638	0.656734	0.216790
C174	C	0.067507	0.342784	0.049964
C175	C	0.069394	0.509901	0.175461
C176	C	0.152848	0.490470	0.009301
C177	C	0.081712	0.537777	0.202145
C178	C	0.165606	0.462892	0.036206
C179	C	0.083159	0.629735	0.201068
C180	C	0.000356	0.370744	0.034749
C181	C	0.135992	0.629794	0.242517
C182	C	0.053312	0.369849	0.075937
C183	C	0.029621	0.536328	0.242451
C184	C	0.113630	0.463878	0.076465
C185	C	0.015642	0.508360	0.217104
C186	C	0.099219	0.491570	0.050918
C187	C	0.036055	0.494757	0.183372
C188	C	0.119277	0.505219	0.016879
C189	C	0.144437	0.366440	0.155540
C190	C	0.060506	0.633240	0.321891
C191	C	0.022459	0.464825	0.156892
C192	C	0.105348	0.534724	0.323036
C193	C	0.262737	0.656683	0.173995
C194	C	0.179460	0.343702	0.007436
C195	C	0.296878	0.337257	0.182164
C196	C	0.213415	0.662581	0.015382
C197	C	0.317305	0.656734	0.216790
C198	C	0.234173	0.342784	0.049964
C199	C	0.236061	0.509901	0.175461
C200	C	0.319515	0.490470	0.009301
C201	C	0.248379	0.537777	0.202145
C202	C	0.332273	0.462892	0.036206
C203	C	0.249825	0.629735	0.201068
C204	C	0.167023	0.370744	0.034749
C205	C	0.302659	0.629794	0.242517
C206	C	0.219978	0.369849	0.075937
C207	C	0.196287	0.536328	0.242451
C208	C	0.280297	0.463878	0.076465
C209	C	0.182308	0.508360	0.217104
C210	C	0.265886	0.491570	0.050918
C211	C	0.202721	0.494757	0.183372
C212	C	0.285944	0.505219	0.016879
C213	C	0.311103	0.366440	0.155540
C214	C	0.227172	0.633240	0.321891
C215	C	0.189126	0.464825	0.156892
C216	C	0.272014	0.534724	0.323036
C217	C	0.064104	0.341663	0.157970
C218	C	0.101745	0.612094	0.080072
C219	C	0.314681	0.492846	0.230713
C220	C	0.177292	0.502353	0.310451
C221	C	0.231319	0.336225	0.150467
C222	C	0.193812	0.380099	0.268417
C223	C	0.144636	0.497560	0.221854
C224	C	0.231494	0.505490	0.066494
H145	H	0.010688	0.666268	0.224507
H146	H	0.086233	0.500298	0.149761
H147	H	0.002880	0.500132	0.316849
H148	H	0.107547	0.550169	0.197545
H149	H	0.024989	0.450950	0.031676
H150	H	0.056718	0.618374	0.196187
H151	H	0.140774	0.382577	0.029962
H152	H	0.151123	0.618391	0.269587
H153	H	0.068746	0.381034	0.102932
H154	H	0.014576	0.547648	0.268869
H155	H	0.098793	0.452509	0.103017
H156	H	0.072984	0.501734	0.058421
H157	H	0.328846	0.334231	0.314500
H158	H	0.177354	0.666268	0.224507
H159	H	0.260780	0.666222	0.057534
H160	H	0.252900	0.500298	0.149761
H161	H	0.274214	0.550169	0.197545
H162	H	0.191656	0.450950	0.031676
H163	H	0.223385	0.618374	0.196187
H164	H	0.307441	0.382577	0.029962
H165	H	0.317790	0.618391	0.269587
H166	H	0.235413	0.381034	0.102932
H167	H	0.181243	0.547648	0.268869
H168	H	0.265459	0.452509	0.103017
H169	H	0.017632	0.380979	0.190771
H170	H	0.048446	0.343184	0.187824
H171	H	0.069547	0.368969	0.149225
H172	H	0.126092	0.598061	0.071185
H173	H	0.098651	0.611684	0.115377
H174	H	0.078528	0.600697	0.063522
H175	H	0.284974	0.444225	0.260634
H176	H	0.302101	0.509923	0.254917
H177	H	0.296093	0.488729	0.203105
H178	H	0.235144	0.554685	0.359219
H179	H	0.190697	0.526791	-0.011330
H180	H	0.159522	0.511688	-0.048752
H181	H	0.187510	0.375224	0.189202
H182	H	0.209117	0.332256	0.172588
H183	H	0.233415	0.364250	0.144185
H184	H	0.181870	0.395263	0.241200
H185	H	0.203371	0.399678	0.292397
H186	H	0.216170	0.363055	0.258594
H187	H	0.105414	0.449641	0.219418
H188	H	0.130419	0.516203	0.242823
H189	H	0.132030	0.497623	0.189591
H190	H	0.198617	0.555572	0.088144
H191	H	0.222251	0.488945	0.093291
H192	H	0.210909	0.505397	0.374253
N25	N	0.102812	0.617084	0.234943
N26	N	0.020243	0.382952	0.068684
N27	N	0.062181	0.550103	0.235279
N28	N	0.146270	0.450309	0.069347
N29	N	0.269479	0.617084	0.234943
N30	N	0.186910	0.382952	0.068684
N31	N	0.228848	0.550103	0.235279
N32	N	0.312937	0.450309	0.069347
Ni13	Ni	0.082334	0.583829	0.278775
Ni14	Ni	0.166657	0.416000	0.113059
Ni15	Ni	0.249001	0.583829	0.278775
Ni16	Ni	0.333324	0.416000	0.113059
O49	O	0.040926	0.449230	0.127624
O50	O	0.123736	0.550326	0.293764
O51	O	0.125877	0.382502	0.125726
O52	O	0.041699	0.617451	0.292087
O53	O	0.157690	0.452053	0.160998
O54	O	0.073712	0.547138	0.326626
O55	O	0.009613	0.378386	0.160359
O56	O	0.092229	0.620919	0.326466
O57	O	0.207593	0.449230	0.127624
O58	O	0.290403	0.550326	0.293764
O59	O	0.292543	0.382502	0.125726
O60	O	0.208366	0.617451	0.292087
O61	O	0.324356	0.452053	0.160998
O62	O	0.240379	0.547138	0.326626
O63	O	0.176280	0.378386	0.160359
O64	O	0.258895	0.620919	0.326466
S25	S	0.036065	0.316214	0.122958
S26	S	0.108774	0.657306	0.064377
S27	S	0.320336	0.449090	0.254493
S28	S	0.209555	0.473380	0.290597
S29	S	0.215566	0.308042	0.107458
S30	S	0.158256	0.688064	0.291733
S31	S	0.136654	0.453149	0.242158
S32	S	0.234370	0.551786	0.084559
C225	C	0.096071	0.656683	0.507328
C226	C	0.012793	0.343702	0.340769
C227	C	0.130211	0.337257	0.515497
C228	C	0.046748	0.662581	0.348715
C229	C	0.150638	0.656734	0.550124
C230	C	0.067507	0.342784	0.383298
C231	C	0.069394	0.509901	0.508795
C232	C	0.152848	0.490470	0.342635
C233	C	0.081712	0.537777	0.535478
C234	C	0.165606	0.462892	0.369539
C235	C	0.083159	0.629735	0.534401
C236	C	0.000356	0.370744	0.368082
C237	C	0.135992	0.629794	0.575851
C238	C	0.053312	0.369849	0.409271
C239	C	0.029621	0.536328	0.575784
C240	C	0.113630	0.463878	0.409798
C241	C	0.015642	0.508360	0.550437
C242	C	0.099219	0.491570	0.384251
C243	C	0.036055	0.494757	0.516705
C244	C	0.119277	0.505219	0.350213
C245	C	0.144437	0.366440	0.488874
C246	C	0.060506	0.633240	0.655224
C247	C	0.022459	0.464825	0.490225
C248	C	0.105348	0.534724	0.656369
C249	C	0.262737	0.656683	0.507328
C250	C	0.179460	0.343702	0.340769
C251	C	0.296878	0.337257	0.515497
C252	C	0.213415	0.662581	0.348715
C253	C	0.317305	0.656734	0.550124
C254	C	0.234173	0.342784	0.383298
C255	C	0.236061	0.509901	0.508795
C256	C	0.319515	0.490470	0.342635
C257	C	0.248379	0.537777	0.535478
C258	C	0.332273	0.462892	0.369539
C259	C	0.249825	0.629735	0.534401
C260	C	0.167023	0.370744	0.368082
C261	C	0.302659	0.629794	0.575851
C262	C	0.219978	0.369849	0.409271
C263	C	0.196287	0.536328	0.575784
C264	C	0.280297	0.463878	0.409798
C265	C	0.182308	0.508360	0.550437
C266	C	0.265886	0.491570	0.384251
C267	C	0.202721	0.494757	0.516705
C268	C	0.285944	0.505219	0.350213
C269	C	0.311103	0.366440	0.488874
C270	C	0.227172	0.633240	0.655224
C271	C	0.189126	0.464825	0.490225
C272	C	0.272014	0.534724	0.656369
C273	C	0.064104	0.341663	0.491303
C274	C	0.101745	0.612094	0.413406
C275	C	0.314681	0.492846	0.564046
C276	C	0.177292	0.502353	0.643784
C277	C	0.231319	0.336225	0.483800
C278	C	0.193812	0.380099	0.601750
C279	C	0.144636	0.497560	0.555188
C280	C	0.231494	0.505490	0.399827
H193	H	0.010688	0.666268	0.557840
H194	H	0.086233	0.500298	0.483094
H195	H	0.002880	0.500132	0.650183
H196	H	0.107547	0.550169	0.530878
H197	H	0.024989	0.450950	0.365009
H198	H	0.056718	0.618374	0.529520
H199	H	0.140774	0.382577	0.363295
H200	H	0.151123	0.618391	0.602920
H201	H	0.068746	0.381034	0.436266
H202	H	0.014576	0.547648	0.602203
H203	H	0.098793	0.452509	0.436350
H204	H	0.072984	0.501734	0.391755
H205	H	0.328846	0.334231	0.647833
H206	H	0.177354	0.666268	0.557840
H207	H	0.260780	0.666222	0.390867
H208	H	0.252900	0.500298	0.483094
H209	H	0.274214	0.550169	0.530878
H210	H	0.191656	0.450950	0.365009
H211	H	0.223385	0.618374	0.529520
H212	H	0.307441	0.382577	0.363295
H213	H	0.317790	0.618391	0.602920
H214	H	0.235413	0.381034	0.436266
H215	H	0.181243	0.547648	0.602203
H216	H	0.265459	0.452509	0.436350
H217	H	0.017632	0.380979	0.524104
H218	H	0.048446	0.343184	0.521157
H219	H	0.069547	0.368969	0.482559
H220	H	0.126092	0.598061	0.404519
H221	H	0.098651	0.611684	0.448710
H222	H	0.078528	0.600697	0.396856
H223	H	0.284974	0.444225	0.593967
H224	H	0.302101	0.509923	0.588250
H225	H	0.296093	0.488729	0.536438
H226	H	0.235144	0.554685	0.692553
H227	H	0.190697	0.526791	0.322003
H228	H	0.159522	0.511688	0.284582
H229	H	0.187510	0.375224	0.522536
H230	H	0.209117	0.332256	0.505921
H231	H	0.233415	0.364250	0.477519
H232	H	0.181870	0.395263	0.574533
H233	H	0.203371	0.399678	0.625730
H234	H	0.216170	0.363055	0.591928
H235	H	0.105414	0.449641	0.552751
H236	H	0.130419	0.516203	0.576156
H237	H	0.132030	0.497623	0.522924
H238	H	0.198617	0.555572	0.421478
H239	H	0.222251	0.488945	0.426624
H240	H	0.210909	0.505397	0.707586
N33	N	0.102812	0.617084	0.568276
N34	N	0.020243	0.382952	0.402017
N35	N	0.062181	0.550103	0.568613
N36	N	0.146270	0.450309	0.402680
N37	N	0.269479	0.617084	0.568276
N38	N	0.186910	0.382952	0.402017
N39	N	0.228848	0.550103	0.568613
N40	N	0.312937	0.450309	0.402680
Ni17	Ni	0.082334	0.583829	0.612109
Ni18	Ni	0.166657	0.416000	0.446393
Ni19	Ni	0.249001	0.583829	0.612109
Ni20	Ni	0.333324	0.416000	0.446393
O65	O	0.040926	0.449230	0.460958
O66	O	0.123736	0.550326	0.627097
O67	O	0.125877	0.382502	0.459059
O68	O	0.041699	0.617451	0.625420
O69	O	0.157690	0.452053	0.494331
O70	O	0.073712	0.547138	0.659959
O71	O	0.009613	0.378386	0.493693
O72	O	0.092229	0.620919	0.659800
O73	O	0.207593	0.449230	0.460958
O74	O	0.290403	0.550326	0.627097
O75	O	0.292543	0.382502	0.459059
O76	O	0.208366	0.617451	0.625420
O77	O	0.324356	0.452053	0.494331
O78	O	0.240379	0.547138	0.659959
O79	O	0.176280	0.378386	0.493693
O80	O	0.258895	0.620919	0.659800
S33	S	0.036065	0.316214	0.456291
S34	S	0.108774	0.657306	0.397710
S35	S	0.320336	0.449090	0.587826
S36	S	0.209555	0.473380	0.623931
S37	S	0.215566	0.308042	0.440792
S38	S	0.158256	0.688064	0.625066
S39	S	0.136654	0.453149	0.575491
S40	S	0.234370	0.551786	0.417892
C281	C	0.096071	0.656683	0.840661
C282	C	0.012793	0.343702	0.674103
C283	C	0.130211	0.337257	0.848831
C284	C	0.046748	0.662581	0.682049
C285	C	0.150638	0.656734	0.883457
C286	C	0.067507	0.342784	0.716631
C287	C	0.069394	0.509901	0.842128
C288	C	0.152848	0.490470	0.675968
C289	C	0.081712	0.537777	0.868812
C290	C	0.165606	0.462892	0.702872
C291	C	0.083159	0.629735	0.867734
C292	C	0.000356	0.370744	0.701416
C293	C	0.135992	0.629794	0.909184
C294	C	0.053312	0.369849	0.742604
C295	C	0.029621	0.536328	0.909117
C296	C	0.113630	0.463878	0.743131
C297	C	0.015642	0.508360	0.883771
C298	C	0.099219	0.491570	0.717585
C299	C	0.036055	0.494757	0.850039
C300	C	0.119277	0.505219	0.683546
C301	C	0.144437	0.366440	0.822207
C302	C	0.060506	0.633240	0.988557
C303	C	0.022459	0.464825	0.823559
C304	C	0.105348	0.534724	0.989702
C305	C	0.262737	0.656683	0.840661
C306	C	0.179460	0.343702	0.674103
C307	C	0.296878	0.337257	0.848831
C308	C	0.213415	0.662581	0.682049
C309	C	0.317305	0.656734	0.883457
C310	C	0.234173	0.342784	0.716631
C311	C	0.236061	0.509901	0.842128
C312	C	0.319515	0.490470	0.675968
C313	C	0.248379	0.537777	0.868812
C314	C	0.332273	0.462892	0.702872
C315	C	0.249825	0.629735	0.867734
C316	C	0.167023	0.370744	0.701416
C317	C	0.302659	0.629794	0.909184
C318	C	0.219978	0.369849	0.742604
C319	C	0.196287	0.536328	0.909117
C320	C	0.280297	0.463878	0.743131
C321	C	0.182308	0.508360	0.883771
C322	C	0.265886	0.491570	0.717585
C323	C	0.202721	0.494757	0.850039
C324	C	0.285944	0.505219	0.683546
C325	C	0.311103	0.366440	0.822207
C326	C	0.227172	0.633240	0.988557
C327	C	0.189126	0.464825	0.823559
C328	C	0.272014	0.534724	0.989702
C329	C	0.064104	0.341663	0.824636
C330	C	0.101745	0.612094	0.746739
C331	C	0.314681	0.492846	0.897380
C332	C	0.177292	0.502353	0.977117
C333	C	0.231319	0.336225	0.817133
C334	C	0.193812	0.380099	0.935083
C335	C	0.144636	0.497560	0.888521
C336	C	0.231494	0.505490	0.733161
H241	H	0.010688	0.666268	0.891173
H242	H	0.086233	0.500298	0.816427
H243	H	0.002880	0.500132	0.983516
H244	H	0.107547	0.550169	0.864212
H245	H	0.024989	0.450950	0.698343
H246	H	0.056718	0.618374	0.862853
H247	H	0.140774	0.382577	0.696629
H248	H	0.151123	0.618391	0.936254
H249	H	0.068746	0.381034	0.769599
H250	H	0.014576	0.547648	0.935536
H251	H	0.098793	0.452509	0.769684
H252	H	0.072984	0.501734	0.725088
H253	H	0.328846	0.334231	0.981166
H254	H	0.177354	0.666268	0.891173
H255	H	0.260780	0.666222	0.724201
H256	H	0.252900	0.500298	0.816427
H257	H	0.274214	0.550169	0.864212
H258	H	0.191656	0.450950	0.698343
H259	H	0.223385	0.618374	0.862853
H260	H	0.307441	0.382577	0.696629
H261	H	0.317790	0.618391	0.936254
H262	H	0.235413	0.381034	0.769599
H263	H	0.181243	0.547648	0.935536
H264	H	0.265459	0.452509	0.769684
H265	H	0.017632	0.380979	0.857437
H266	H	0.048446	0.343184	0.854490
H267	H	0.069547	0.368969	0.815892
H268	H	0.126092	0.598061	0.737852
H269	H	0.098651	0.611684	0.782044
H270	H	0.078528	0.600697	0.730189
H271	H	0.284974	0.444225	0.927301
H272	H	0.302101	0.509923	0.921583
H273	H	0.296093	0.488729	0.869771
H274	H	0.235144	0.554685	1.025886
H275	H	0.190697	0.526791	0.655336
H276	H	0.159522	0.511688	0.617915
H277	H	0.187510	0.375224	0.855869
H278	H	0.209117	0.332256	0.839255
H279	H	0.233415	0.364250	0.810852
H280	H	0.181870	0.395263	0.907867
H281	H	0.203371	0.399678	0.959064
H282	H	0.216170	0.363055	0.925261
H283	H	0.105414	0.449641	0.886085
H284	H	0.130419	0.516203	0.909489
H285	H	0.132030	0.497623	0.856257
H286	H	0.198617	0.555572	0.754811
H287	H	0.222251	0.488945	0.759957
H288	H	0.210909	0.505397	1.040920
N41	N	0.102812	0.617084	0.901609
N42	N	0.020243	0.382952	0.735351
N43	N	0.062181	0.550103	0.901946
N44	N	0.146270	0.450309	0.736014
N45	N	0.269479	0.617084	0.901609
N46	N	0.186910	0.382952	0.735351
N47	N	0.228848	0.550103	0.901946
N48	N	0.312937	0.450309	0.736014
Ni21	Ni	0.082334	0.583829	0.945442
Ni22	Ni	0.166657	0.416000	0.779726
Ni23	Ni	0.249001	0.583829	0.945442
Ni24	Ni	0.333324	0.416000	0.779726
O81	O	0.040926	0.449230	0.794291
O82	O	0.123736	0.550326	0.960431
O83	O	0.125877	0.382502	0.792393
O84	O	0.041699	0.617451	0.958754
O85	O	0.157690	0.452053	0.827665
O86	O	0.073712	0.547138	0.993292
O87	O	0.009613	0.378386	0.827026
O88	O	0.092229	0.620919	0.993133
O89	O	0.207593	0.449230	0.794291
O90	O	0.290403	0.550326	0.960431
O91	O	0.292543	0.382502	0.792393
O92	O	0.208366	0.617451	0.958754
O93	O	0.324356	0.452053	0.827665
O94	O	0.240379	0.547138	0.993292
O95	O	0.176280	0.378386	0.827026
O96	O	0.258895	0.620919	0.993133
S41	S	0.036065	0.316214	0.789625
S42	S	0.108774	0.657306	0.731044
S43	S	0.320336	0.449090	0.921160
S44	S	0.209555	0.473380	0.957264
S45	S	0.215566	0.308042	0.774125
S46	S	0.158256	0.688064	0.958399
S47	S	0.136654	0.453149	0.908824
S48	S	0.234370	0.551786	0.751226
C337	C	0.096071	0.990017	0.173995
C338	C	0.012793	0.677035	0.007436
C339	C	0.130211	0.670590	0.182164
C340	C	0.046748	0.995915	0.015382
C341	C	0.150638	0.990067	0.216790
C342	C	0.067507	0.676118	0.049964
C343	C	0.069394	0.843235	0.175461
C344	C	0.152848	0.823803	0.009301
C345	C	0.081712	0.871110	0.202145
C346	C	0.165606	0.796226	0.036206
C347	C	0.083159	0.963069	0.201068
C348	C	0.000356	0.704077	0.034749
C349	C	0.135992	0.963128	0.242517
C350	C	0.053312	0.703182	0.075937
C351	C	0.029621	0.869661	0.242451
C352	C	0.113630	0.797211	0.076465
C353	C	0.015642	0.841693	0.217104
C354	C	0.099219	0.824904	0.050918
C355	C	0.036055	0.828090	0.183372
C356	C	0.119277	0.838552	0.016879
C357	C	0.144437	0.699773	0.155540
C358	C	0.060506	0.966573	0.321891
C359	C	0.022459	0.798158	0.156892
C360	C	0.105348	0.868057	0.323036
C361	C	0.262737	0.990017	0.173995
C362	C	0.179460	0.677035	0.007436
C363	C	0.296878	0.670590	0.182164
C364	C	0.213415	0.995915	0.015382
C365	C	0.317305	0.990067	0.216790
C366	C	0.234173	0.676118	0.049964
C367	C	0.236061	0.843235	0.175461
C368	C	0.319515	0.823803	0.009301
C369	C	0.248379	0.871110	0.202145
C370	C	0.332273	0.796226	0.036206
C371	C	0.249825	0.963069	0.201068
C372	C	0.167023	0.704077	0.034749
C373	C	0.302659	0.963128	0.242517
C374	C	0.219978	0.703182	0.075937
C375	C	0.196287	0.869661	0.242451
C376	C	0.280297	0.797211	0.076465
C377	C	0.182308	0.841693	0.217104
C378	C	0.265886	0.824904	0.050918
C379	C	0.202721	0.828090	0.183372
C380	C	0.285944	0.838552	0.016879
C381	C	0.311103	0.699773	0.155540
C382	C	0.227172	0.966573	0.321891
C383	C	0.189126	0.798158	0.156892
C384	C	0.272014	0.868057	0.323036
C385	C	0.064104	0.674996	0.157970
C386	C	0.101745	0.945428	0.080072
C387	C	0.314681	0.826179	0.230713
C388	C	0.177292	0.835687	0.310451
C389	C	0.231319	0.669558	0.150467
C390	C	0.193812	0.713432	0.268417
C391	C	0.144636	0.830893	0.221854
C392	C	0.231494	0.838823	0.066494
H289	H	0.010688	0.999602	0.224507
H290	H	0.086233	0.833632	0.149761
H291	H	0.002880	0.833466	0.316849
H292	H	0.107547	0.883502	0.197545
H293	H	0.024989	0.784284	0.031676
H294	H	0.056718	0.951708	0.196187
H295	H	0.140774	0.715911	0.029962
H296	H	0.151123	0.951724	0.269587
H297	H	0.068746	0.714368	0.102932
H298	H	0.014576	0.880981	0.268869
H299	H	0.098793	0.785842	0.103017
H300	H	0.072984	0.835067	0.058421
H301	H	0.328846	0.667564	0.314500
H302	H	0.177354	0.999602	0.224507
H303	H	0.260780	0.999555	0.057534
H304	H	0.252900	0.833632	0.149761
H305	H	0.274214	0.883502	0.197545
H306	H	0.191656	0.784284	0.031676
H307	H	0.223385	0.951708	0.196187
H308	H	0.307441	0.715911	0.029962
H309	H	0.317790	0.951724	0.269587
H310	H	0.235413	0.714368	0.102932
H311	H	0.181243	0.880981	0.268869
H312	H	0.265459	0.785842	0.103017
H313	H	0.017632	0.714312	0.190771
H314	H	0.048446	0.676518	0.187824
H315	H	0.069547	0.702303	0.149225
H316	H	0.126092	0.931394	0.071185
H317	H	0.098651	0.945017	0.115377
H318	H	0.078528	0.934030	0.063522
H319	H	0.284974	0.777559	0.260634
H320	H	0.302101	0.843256	0.254917
H321	H	0.296093	0.822062	0.203105
H322	H	0.235144	0.888018	0.359219
H323	H	0.190697	0.860125	-0.011330
H324	H	0.159522	0.845021	-0.048752
H325	H	0.187510	0.708557	0.189202
H326	H	0.209117	0.665589	0.172588
H327	H	0.233415	0.697583	0.144185
H328	H	0.181870	0.728596	0.241200
H329	H	0.203371	0.733011	0.292397
H330	H	0.216170	0.696388	0.258594
H331	H	0.105414	0.782975	0.219418
H332	H	0.130419	0.849536	0.242823
H333	H	0.132030	0.830957	0.189591
H334	H	0.198617	0.888905	0.088144
H335	H	0.222251	0.822278	0.093291
H336	H	0.210909	0.838731	0.374253
N49	N	0.102812	0.950418	0.234943
N50	N	0.020243	0.716286	0.068684
N51	N	0.062181	0.883437	0.235279
N52	N	0.146270	0.783643	0.069347
N53	N	0.269479	0.950418	0.234943
N54	N	0.186910	0.716286	0.068684
N55	N	0.228848	0.883437	0.235279
N56	N	0.312937	0.783643	0.069347
Ni25	Ni	0.082334	0.917162	0.278775
Ni26	Ni	0.166657	0.749333	0.113059
Ni27	Ni	0.249001	0.917162	0.278775
Ni28	Ni	0.333324	0.749333	0.113059
O97	O	0.040926	0.782563	0.127624
O98	O	0.123736	0.883659	0.293764
O99	O	0.125877	0.715836	0.125726
O100	O	0.041699	0.950784	0.292087
O101	O	0.157690	0.785387	0.160998
O102	O	0.073712	0.880472	0.326626
O103	O	0.009613	0.711719	0.160359
O104	O	0.092229	0.954253	0.326466
O105	O	0.207593	0.782563	0.127624
O106	O	0.290403	0.883659	0.293764
O107	O	0.292543	0.715836	0.125726
O108	O	0.208366	0.950784	0.292087
O109	O	0.324356	0.785387	0.160998
O110	O	0.240379	0.880472	0.326626
O111	O	0.176280	0.711719	0.160359
O112	O	0.258895	0.954253	0.326466
S49	S	0.036065	0.649548	0.122958
S50	S	0.108774	0.990639	0.064377
S51	S	0.320336	0.782424	0.254493
S52	S	0.209555	0.806713	0.290597
S53	S	0.215566	0.641375	0.107458
S54	S	0.158256	1.021397	0.291733
S55	S	0.136654	0.786482	0.242158
S56	S	0.234370	0.885119	0.084559
C393	C	0.096071	0.990017	0.507328
C394	C	0.012793	0.677035	0.340769
C395	C	0.130211	0.670590	0.515497
C396	C	0.046748	0.995915	0.348715
C397	C	0.150638	0.990067	0.550124
C398	C	0.067507	0.676118	0.383298
C399	C	0.069394	0.843235	0.508795
C400	C	0.152848	0.823803	0.342635
C401	C	0.081712	0.871110	0.535478
C402	C	0.165606	0.796226	0.369539
C403	C	0.083159	0.963069	0.534401
C404	C	0.000356	0.704077	0.368082
C405	C	0.135992	0.963128	0.575851
C406	C	0.053312	0.703182	0.409271
C407	C	0.029621	0.869661	0.575784
C408	C	0.113630	0.797211	0.409798
C409	C	0.015642	0.841693	0.550437
C410	C	0.099219	0.824904	0.384251
C411	C	0.036055	0.828090	0.516705
C412	C	0.119277	0.838552	0.350213
C413	C	0.144437	0.699773	0.488874
C414	C	0.060506	0.966573	0.655224
C415	C	0.022459	0.798158	0.490225
C416	C	0.105348	0.868057	0.656369
C417	C	0.262737	0.990017	0.507328
C418	C	0.179460	0.677035	0.340769
C419	C	0.296878	0.670590	0.515497
C420	C	0.213415	0.995915	0.348715
C421	C	0.317305	0.990067	0.550124
C422	C	0.234173	0.676118	0.383298
C423	C	0.236061	0.843235	0.508795
C424	C	0.319515	0.823803	0.342635
C425	C	0.248379	0.871110	0.535478
C426	C	0.332273	0.796226	0.369539
C427	C	0.249825	0.963069	0.534401
C428	C	0.167023	0.704077	0.368082
C429	C	0.302659	0.963128	0.575851
C430	C	0.219978	0.703182	0.409271
C431	C	0.196287	0.869661	0.575784
C432	C	0.280297	0.797211	0.409798
C433	C	0.182308	0.841693	0.550437
C434	C	0.265886	0.824904	0.384251
C435	C	0.202721	0.828090	0.516705
C436	C	0.285944	0.838552	0.350213
C437	C	0.311103	0.699773	0.488874
C438	C	0.227172	0.966573	0.655224
C439	C	0.189126	0.798158	0.490225
C440	C	0.272014	0.868057	0.656369
C441	C	0.064104	0.674996	0.491303
C442	C	0.101745	0.945428	0.413406
C443	C	0.314681	0.826179	0.564046
C444	C	0.177292	0.835687	0.643784
C445	C	0.231319	0.669558	0.483800
C446	C	0.193812	0.713432	0.601750
C447	C	0.144636	0.830893	0.555188
C448	C	0.231494	0.838823	0.399827
H337	H	0.010688	0.999602	0.557840
H338	H	0.086233	0.833632	0.483094
H339	H	0.002880	0.833466	0.650183
H340	H	0.107547	0.883502	0.530878
H341	H	0.024989	0.784284	0.365009
H342	H	0.056718	0.951708	0.529520
H343	H	0.140774	0.715911	0.363295
H344	H	0.151123	0.951724	0.602920
H345	H	0.068746	0.714368	0.436266
H346	H	0.014576	0.880981	0.602203
H347	H	0.098793	0.785842	0.436350
H348	H	0.072984	0.835067	0.391755
H349	H	0.328846	0.667564	0.647833
H350	H	0.177354	0.999602	0.557840
H351	H	0.260780	0.999555	0.390867
H352	H	0.252900	0.833632	0.483094
H353	H	0.274214	0.883502	0.530878
H354	H	0.191656	0.784284	0.365009
H355	H	0.223385	0.951708	0.529520
H356	H	0.307441	0.715911	0.363295
H357	H	0.317790	0.951724	0.602920
H358	H	0.235413	0.714368	0.436266
H359	H	0.181243	0.880981	0.602203
H360	H	0.265459	0.785842	0.436350
H361	H	0.017632	0.714312	0.524104
H362	H	0.048446	0.676518	0.521157
H363	H	0.069547	0.702303	0.482559
H364	H	0.126092	0.931394	0.404519
H365	H	0.098651	0.945017	0.448710
H366	H	0.078528	0.934030	0.396856
H367	H	0.284974	0.777559	0.593967
H368	H	0.302101	0.843256	0.588250
H369	H	0.296093	0.822062	0.536438
H370	H	0.235144	0.888018	0.692553
H371	H	0.190697	0.860125	0.322003
H372	H	0.159522	0.845021	0.284582
H373	H	0.187510	0.708557	0.522536
H374	H	0.209117	0.665589	0.505921
H375	H	0.233415	0.697583	0.477519
H376	H	0.181870	0.728596	0.574533
H377	H	0.203371	0.733011	0.625730
H378	H	0.216170	0.696388	0.591928
H379	H	0.105414	0.782975	0.552751
H380	H	0.130419	0.849536	0.576156
H381	H	0.132030	0.830957	0.522924
H382	H	0.198617	0.888905	0.421478
H383	H	0.222251	0.822278	0.426624
H384	H	0.210909	0.838731	0.707586
N57	N	0.102812	0.950418	0.568276
N58	N	0.020243	0.716286	0.402017
N59	N	0.062181	0.883437	0.568613
N60	N	0.146270	0.783643	0.402680
N61	N	0.269479	0.950418	0.568276
N62	N	0.186910	0.716286	0.402017
N63	N	0.228848	0.883437	0.568613
N64	N	0.312937	0.783643	0.402680
Ni29	Ni	0.082334	0.917162	0.612109
Ni30	Ni	0.166657	0.749333	0.446393
Ni31	Ni	0.249001	0.917162	0.612109
Ni32	Ni	0.333324	0.749333	0.446393
O113	O	0.040926	0.782563	0.460958
O114	O	0.123736	0.883659	0.627097
O115	O	0.125877	0.715836	0.459059
O116	O	0.041699	0.950784	0.625420
O117	O	0.157690	0.785387	0.494331
O118	O	0.073712	0.880472	0.659959
O119	O	0.009613	0.711719	0.493693
O120	O	0.092229	0.954253	0.659800
O121	O	0.207593	0.782563	0.460958
O122	O	0.290403	0.883659	0.627097
O123	O	0.292543	0.715836	0.459059
O124	O	0.208366	0.950784	0.625420
O125	O	0.324356	0.785387	0.494331
O126	O	0.240379	0.880472	0.659959
O127	O	0.176280	0.711719	0.493693
O128	O	0.258895	0.954253	0.659800
S57	S	0.036065	0.649548	0.456291
S58	S	0.108774	0.990639	0.397710
S59	S	0.320336	0.782424	0.587826
S60	S	0.209555	0.806713	0.623931
S61	S	0.215566	0.641375	0.440792
S62	S	0.158256	1.021397	0.625066
S63	S	0.136654	0.786482	0.575491
S64	S	0.234370	0.885119	0.417892
C449	C	0.096071	0.990017	0.840661
C450	C	0.012793	0.677035	0.674103
C451	C	0.130211	0.670590	0.848831
C452	C	0.046748	0.995915	0.682049
C453	C	0.150638	0.990067	0.883457
C454	C	0.067507	0.676118	0.716631
C455	C	0.069394	0.843235	0.842128
C456	C	0.152848	0.823803	0.675968
C457	C	0.081712	0.871110	0.868812
C458	C	0.165606	0.796226	0.702872
C459	C	0.083159	0.963069	0.867734
C460	C	0.000356	0.704077	0.701416
C461	C	0.135992	0.963128	0.909184
C462	C	0.053312	0.703182	0.742604
C463	C	0.029621	0.869661	0.909117
C464	C	0.113630	0.797211	0.743131
C465	C	0.015642	0.841693	0.883771
C466	C	0.099219	0.824904	0.717585
C467	C	0.036055	0.828090	0.850039
C468	C	0.119277	0.838552	0.683546
C469	C	0.144437	0.699773	0.822207
C470	C	0.060506	0.966573	0.988557
C471	C	0.022459	0.798158	0.823559
C472	C	0.105348	0.868057	0.989702
C473	C	0.262737	0.990017	0.840661
C474	C	0.179460	0.677035	0.674103
C475	C	0.296878	0.670590	0.848831
C476	C	0.213415	0.995915	0.682049
C477	C	0.317305	0.990067	0.883457
C478	C	0.234173	0.676118	0.716631
C479	C	0.236061	0.843235	0.842128
C480	C	0.319515	0.823803	0.675968
C481	C	0.248379	0.871110	0.868812
C482	C	0.332273	0.796226	0.702872
C483	C	0.249825	0.963069	0.867734
C484	C	0.167023	0.704077	0.701416
C485	C	0.302659	0.963128	0.909184
C486	C	0.219978	0.703182	0.742604
C487	C	0.196287	0.869661	0.909117
C488	C	0.280297	0.797211	0.743131
C489	C	0.182308	0.841693	0.883771
C490	C	0.265886	0.824904	0.717585
C491	C	0.202721	0.828090	0.850039
C492	C	0.285944	0.838552	0.683546
C493	C	0.311103	0.699773	0.822207
C494	C	0.227172	0.966573	0.988557
C495	C	0.189126	0.798158	0.823559
C496	C	0.272014	0.868057	0.989702
C497	C	0.064104	0.674996	0.824636
C498	C	0.101745	0.945428	0.746739
C499	C	0.314681	0.826179	0.897380
C500	C	0.177292	0.835687	0.977117
C501	C	0.231319	0.669558	0.817133
C502	C	0.193812	0.713432	0.935083
C503	C	0.144636	0.830893	0.888521
C504	C	0.231494	0.838823	0.733161
H385	H	0.010688	0.999602	0.891173
H386	H	0.086233	0.833632	0.816427
H387	H	0.002880	0.833466	0.983516
H388	H	0.107547	0.883502	0.864212
H389	H	0.024989	0.784284	0.698343
H390	H	0.056718	0.951708	0.862853
H391	H	0.140774	0.715911	0.696629
H392	H	0.151123	0.951724	0.936254
H393	H	0.068746	0.714368	0.769599
H394	H	0.014576	0.880981	0.935536
H395	H	0.098793	0.785842	0.769684
H396	H	0.072984	0.835067	0.725088
H397	H	0.328846	0.667564	0.981166
H398	H	0.177354	0.999602	0.891173
H399	H	0.260780	0.999555	0.724201
H400	H	0.252900	0.833632	0.816427
H401	H	0.274214	0.883502	0.864212
H402	H	0.191656	0.784284	0.698343
H403	H	0.223385	0.951708	0.862853
H404	H	0.307441	0.715911	0.696629
H405	H	0.317790	0.951724	0.936254
H406	H	0.235413	0.714368	0.769599
H407	H	0.181243	0.880981	0.935536
H408	H	0.265459	0.785842	0.769684
H409	H	0.017632	0.714312	0.857437
H410	H	0.048446	0.676518	0.854490
H411	H	0.069547	0.702303	0.815892
H412	H	0.126092	0.931394	0.737852
H413	H	0.098651	0.945017	0.782044
H414	H	0.078528	0.934030	0.730189
H415	H	0.284974	0.777559	0.927301
H416	H	0.302101	0.843256	0.921583
H417	H	0.296093	0.822062	0.869771
H418	H	0.235144	0.888018	1.025886
H419	H	0.190697	0.860125	0.655336
H420	H	0.159522	0.845021	0.617915
H421	H	0.187510	0.708557	0.855869
H422	H	0.209117	0.665589	0.839255
H423	H	0.233415	0.697583	0.810852
H424	H	0.181870	0.728596	0.907867
H425	H	0.203371	0.733011	0.959064
H426	H	0.216170	0.696388	0.925261
H427	H	0.105414	0.782975	0.886085
H428	H	0.130419	0.849536	0.909489
H429	H	0.132030	0.830957	0.856257
H430	H	0.198617	0.888905	0.754811
H431	H	0.222251	0.822278	0.759957
H432	H	0.210909	0.838731	1.040920
N65	N	0.102812	0.950418	0.901609
N66	N	0.020243	0.716286	0.735351
N67	N	0.062181	0.883437	0.901946
N68	N	0.146270	0.783643	0.736014
N69	N	0.269479	0.950418	0.901609
N70	N	0.186910	0.716286	0.735351
N71	N	0.228848	0.883437	0.901946
N72	N	0.312937	0.783643	0.736014
Ni33	Ni	0.082334	0.917162	0.945442
Ni34	Ni	0.166657	0.749333	0.779726
Ni35	Ni	0.249001	0.917162	0.945442
Ni36	Ni	0.333324	0.749333	0.779726
O129	O	0.040926	0.782563	0.794291
O130	O	0.123736	0.883659	0.960431
O131	O	0.125877	0.715836	0.792393
O132	O	0.041699	0.950784	0.958754
O133	O	0.157690	0.785387	0.827665
O134	O	0.073712	0.880472	0.993292
O135	O	0.009613	0.711719	0.827026
O136	O	0.092229	0.954253	0.993133
O137	O	0.207593	0.782563	0.794291
O138	O	0.290403	0.883659	0.960431
O139	O	0.292543	0.715836	0.792393
O140	O	0.208366	0.950784	0.958754
O141	O	0.324356	0.785387	0.827665
O142	O	0.240379	0.880472	0.993292
O143	O	0.176280	0.711719	0.827026
O144	O	0.258895	0.954253	0.993133
S65	S	0.036065	0.649548	0.789625
S66	S	0.108774	0.990639	0.731044
S67	S	0.320336	0.782424	0.921160
S68	S	0.209555	0.806713	0.957264
S69	S	0.215566	0.641375	0.774125
S70	S	0.158256	1.021397	0.958399
S71	S	0.136654	0.786482	0.908824
S72	S	0.234370	0.885119	0.751226
C505	C	0.429404	0.323350	0.173995
C506	C	0.346126	0.010369	0.007436
C507	C	0.463545	0.003923	0.182164
C508	C	0.380081	0.329248	0.015382
C509	C	0.483972	0.323401	0.216790
C510	C	0.400840	0.009451	0.049964
C511	C	0.402727	0.176568	0.175461
C512	C	0.486182	0.157136	0.009301
C513	C	0.415046	0.204444	0.202145
C514	C	0.498940	0.129559	0.036206
C515	C	0.416492	0.296402	0.201068
C516	C	0.333690	0.037411	0.034749
C517	C	0.469326	0.296461	0.242517
C518	C	0.386645	0.036516	0.075937
C519	C	0.362954	0.202994	0.242451
C520	C	0.446963	0.130544	0.076465
C521	C	0.348975	0.175026	0.217104
C522	C	0.432553	0.158237	0.050918
C523	C	0.369388	0.161423	0.183372
C524	C	0.452611	0.171885	0.016879
C525	C	0.477770	0.033106	0.155540
C526	C	0.393839	0.299907	0.321891
C527	C	0.355793	0.131491	0.156892
C528	C	0.438681	0.201391	0.323036
C529	C	0.596071	0.323350	0.173995
C530	C	0.512793	0.010369	0.007436
C531	C	0.630211	0.003923	0.182164
C532	C	0.546748	0.329248	0.015382
C533	C	0.650638	0.323401	0.216790
C534	C	0.567507	0.009451	0.049964
C535	C	0.569394	0.176568	0.175461
C536	C	0.652849	0.157136	0.009301
C537	C	0.581712	0.204444	0.202145
C538	C	0.665606	0.129559	0.036206
C539	C	0.583159	0.296402	0.201068
C540	C	0.500356	0.037411	0.034749
C541	C	0.635992	0.296461	0.242517
C542	C	0.553311	0.036516	0.075937
C543	C	0.529621	0.202994	0.242451
C544	C	0.613630	0.130544	0.076465
C545	C	0.515642	0.175026	0.217104
C546	C	0.599219	0.158237	0.050918
C547	C	0.536055	0.161423	0.183372
C548	C	0.619277	0.171885	0.016879
C549	C	0.644437	0.033106	0.155540
C550	C	0.560506	0.299907	0.321891
C551	C	0.522459	0.131491	0.156892
C552	C	0.605348	0.201391	0.323036
C553	C	0.397437	0.008330	0.157970
C554	C	0.435079	0.278761	0.080072
C555	C	0.648014	0.159513	0.230713
C556	C	0.510625	0.169020	0.310451
C557	C	0.564652	0.002891	0.150467
C558	C	0.527146	0.046765	0.268417
C559	C	0.477969	0.164227	0.221854
C560	C	0.564827	0.172156	0.066494
H433	H	0.344021	0.332935	0.224507
H434	H	0.419567	0.166965	0.149761
H435	H	0.336214	0.166799	0.316849
H436	H	0.440880	0.216835	0.197545
H437	H	0.358323	0.117617	0.031676
H438	H	0.390051	0.285041	0.196187
H439	H	0.474107	0.049244	0.029962
H440	H	0.484457	0.285058	0.269587
H441	H	0.402080	0.047701	0.102932
H442	H	0.347910	0.214315	0.268869
H443	H	0.432126	0.119175	0.103017
H444	H	0.406317	0.168400	0.058421
H445	H	0.662179	0.000897	0.314500
H446	H	0.510687	0.332935	0.224507
H447	H	0.594113	0.332888	0.057534
H448	H	0.586233	0.166965	0.149761
H449	H	0.607547	0.216835	0.197545
H450	H	0.524989	0.117617	0.031676
H451	H	0.556718	0.285041	0.196187
H452	H	0.640774	0.049244	0.029962
H453	H	0.651123	0.285058	0.269587
H454	H	0.568747	0.047701	0.102932
H455	H	0.514576	0.214315	0.268869
H456	H	0.598793	0.119175	0.103017
H457	H	0.350965	0.047646	0.190771
H458	H	0.381779	0.009851	0.187824
H459	H	0.402880	0.035636	0.149225
H460	H	0.459425	0.264728	0.071185
H461	H	0.431984	0.278351	0.115377
H462	H	0.411861	0.267363	0.063522
H463	H	0.618308	0.110892	0.260634
H464	H	0.635435	0.176590	0.254917
H465	H	0.629426	0.155395	0.203105
H466	H	0.568477	0.221351	0.359219
H467	H	0.524031	0.193458	-0.011330
H468	H	0.492856	0.178354	-0.048752
H469	H	0.520844	0.041890	0.189202
H470	H	0.542451	-0.001078	0.172588
H471	H	0.566748	0.030917	0.144185
H472	H	0.515203	0.061930	0.241200
H473	H	0.536704	0.066344	0.292397
H474	H	0.549503	0.029721	0.258594
H475	H	0.438747	0.116308	0.219418
H476	H	0.463753	0.182870	0.242823
H477	H	0.465364	0.164290	0.189591
H478	H	0.531950	0.222238	0.088144
H479	H	0.555585	0.155612	0.093291
H480	H	0.544242	0.172064	0.374253
N73	N	0.436146	0.283751	0.234943
N74	N	0.353576	0.049619	0.068684
N75	N	0.395514	0.216770	0.235279
N76	N	0.479603	0.116976	0.069347
N77	N	0.602812	0.283751	0.234943
N78	N	0.520243	0.049619	0.068684
N79	N	0.562181	0.216770	0.235279
N80	N	0.646270	0.116976	0.069347
Ni37	Ni	0.415667	0.250495	0.278775
Ni38	Ni	0.499991	0.082666	0.113059
Ni39	Ni	0.582334	0.250495	0.278775
Ni40	Ni	0.666657	0.082666	0.113059
O145	O	0.374259	0.115896	0.127624
O146	O	0.457069	0.216992	0.293764
O147	O	0.459210	0.049169	0.125726
O148	O	0.375033	0.284117	0.292087
O149	O	0.491023	0.118720	0.160998
O150	O	0.407046	0.213805	0.326626
O151	O	0.342947	0.045053	0.160359
O152	O	0.425562	0.287586	0.326466
O153	O	0.540926	0.115896	0.127624
O154	O	0.623736	0.216992	0.293764
O155	O	0.625877	0.049169	0.125726
O156	O	0.541699	0.284117	0.292087
O157	O	0.657690	0.118720	0.160998
O158	O	0.573712	0.213805	0.326626
O159	O	0.509613	0.045053	0.160359
O160	O	0.592229	0.287586	0.326466
S73	S	0.369399	-0.017119	0.122958
S74	S	0.442107	0.323973	0.064377
S75	S	0.653669	0.115757	0.254493
S76	S	0.542888	0.140047	0.290597
S77	S	0.548899	-0.025291	0.107458
S78	S	0.491590	0.354730	0.291733
S79	S	0.469987	0.119816	0.242158
S80	S	0.567703	0.218452	0.084559
C561	C	0.429404	0.323350	0.507328
C562	C	0.346126	0.010369	0.340769
C563	C	0.463545	0.003923	0.515497
C564	C	0.380081	0.329248	0.348715
C565	C	0.483972	0.323401	0.550124
C566	C	0.400840	0.009451	0.383298
C567	C	0.402727	0.176568	0.508795
C568	C	0.486182	0.157136	0.342635
C569	C	0.415046	0.204444	0.535478
C570	C	0.498940	0.129559	0.369539
C571	C	0.416492	0.296402	0.534401
C572	C	0.333690	0.037411	0.368082
C573	C	0.469326	0.296461	0.575851
C574	C	0.386645	0.036516	0.409271
C575	C	0.362954	0.202994	0.575784
C576	C	0.446963	0.130544	0.409798
C577	C	0.348975	0.175026	0.550437
C578	C	0.432553	0.158237	0.384251
C579	C	0.369388	0.161423	0.516705
C580	C	0.452611	0.171885	0.350213
C581	C	0.477770	0.033106	0.488874
C582	C	0.393839	0.299907	0.655224
C583	C	0.355793	0.131491	0.490225
C584	C	0.438681	0.201391	0.656369
C585	C	0.596071	0.323350	0.507328
C586	C	0.512793	0.010369	0.340769
C587	C	0.630211	0.003923	0.515497
C588	C	0.546748	0.329248	0.348715
C589	C	0.650638	0.323401	0.550124
C590	C	0.567507	0.009451	0.383298
C591	C	0.569394	0.176568	0.508795
C592	C	0.652849	0.157136	0.342635
C593	C	0.581712	0.204444	0.535478
C594	C	0.665606	0.129559	0.369539
C595	C	0.583159	0.296402	0.534401
C596	C	0.500356	0.037411	0.368082
C597	C	0.635992	0.296461	0.575851
C598	C	0.553311	0.036516	0.409271
C599	C	0.529621	0.202994	0.575784
C600	C	0.613630	0.130544	0.409798
C601	C	0.515642	0.175026	0.550437
C602	C	0.599219	0.158237	0.384251
C603	C	0.536055	0.161423	0.516705
C604	C	0.619277	0.171885	0.350213
C605	C	0.644437	0.033106	0.488874
C606	C	0.560506	0.299907	0.655224
C607	C	0.522459	0.131491	0.490225
C608	C	0.605348	0.201391	0.656369
C609	C	0.397437	0.008330	0.491303
C610	C	0.435079	0.278761	0.413406
C611	C	0.648014	0.159513	0.564046
C612	C	0.510625	0.169020	0.643784
C613	C	0.564652	0.002891	0.483800
C614	C	0.527146	0.046765	0.601750
C615	C	0.477969	0.164227	0.555188
C616	C	0.564827	0.172156	0.399827
H481	H	0.344021	0.332935	0.557840
H482	H	0.419567	0.166965	0.483094
H483	H	0.336214	0.166799	0.650183
H484	H	0.440880	0.216835	0.530878
H485	H	0.358323	0.117617	0.365009
H486	H	0.390051	0.285041	0.529520
H487	H	0.474107	0.049244	0.363295
H488	H	0.484457	0.285058	0.602920
H489	H	0.402080	0.047701	0.436266
H490	H	0.347910	0.214315	0.602203
H491	H	0.432126	0.119175	0.436350
H492	H	0.406317	0.168400	0.391755
H493	H	0.662179	0.000897	0.647833
H494	H	0.510687	0.332935	0.557840
H495	H	0.594113	0.332888	0.390867
H496	H	0.586233	0.166965	0.483094
H497	H	0.607547	0.216835	0.530878
H498	H	0.524989	0.117617	0.365009
H499	H	0.556718	0.285041	0.529520
H500	H	0.640774	0.049244	0.363295
H501	H	0.651123	0.285058	0.602920
H502	H	0.568747	0.047701	0.436266
H503	H	0.514576	0.214315	0.602203
H504	H	0.598793	0.119175	0.436350
H505	H	0.350965	0.047646	0.524104
H506	H	0.381779	0.009851	0.521157
H507	H	0.402880	0.035636	0.482559
H508	H	0.459425	0.264728	0.404519
H509	H	0.431984	0.278351	0.448710
H510	H	0.411861	0.267363	0.396856
H511	H	0.618308	0.110892	0.593967
H512	H	0.635435	0.176590	0.588250
H513	H	0.629426	0.155395	0.536438
H514	H	0.568477	0.221351	0.692553
H515	H	0.524031	0.193458	0.322003
H516	H	0.492856	0.178354	0.284582
H517	H	0.520844	0.041890	0.522536
H518	H	0.542451	-0.001078	0.505921
H519	H	0.566748	0.030917	0.477519
H520	H	0.515203	0.061930	0.574533
H521	H	0.536704	0.066344	0.625730
H522	H	0.549503	0.029721	0.591928
H523	H	0.438747	0.116308	0.552751
H524	H	0.463753	0.182870	0.576156
H525	H	0.465364	0.164290	0.522924
H526	H	0.531950	0.222238	0.421478
H527	H	0.555585	0.155612	0.426624
H528	H	0.544242	0.172064	0.707586
N81	N	0.436146	0.283751	0.568276
N82	N	0.353576	0.049619	0.402017
N83	N	0.395514	0.216770	0.568613
N84	N	0.479603	0.116976	0.402680
N85	N	0.602812	0.283751	0.568276
N86	N	0.520243	0.049619	0.402017
N87	N	0.562181	0.216770	0.568613
N88	N	0.646270	0.116976	0.402680
Ni41	Ni	0.415667	0.250495	0.612109
Ni42	Ni	0.499991	0.082666	0.446393
Ni43	Ni	0.582334	0.250495	0.612109
Ni44	Ni	0.666657	0.082666	0.446393
O161	O	0.374259	0.115896	0.460958
O162	O	0.457069	0.216992	0.627097
O163	O	0.459210	0.049169	0.459059
O164	O	0.375033	0.284117	0.625420
O165	O	0.491023	0.118720	0.494331
O166	O	0.407046	0.213805	0.659959
O167	O	0.342947	0.045053	0.493693
O168	O	0.425562	0.287586	0.659800
O169	O	0.540926	0.115896	0.460958
O170	O	0.623736	0.216992	0.627097
O171	O	0.625877	0.049169	0.459059
O172	O	0.541699	0.284117	0.625420
O173	O	0.657690	0.118720	0.494331
O174	O	0.573712	0.213805	0.659959
O175	O	0.509613	0.045053	0.493693
O176	O	0.592229	0.287586	0.659800
S81	S	0.369399	-0.017119	0.456291
S82	S	0.442107	0.323973	0.397710
S83	S	0.653669	0.115757	0.587826
S84	S	0.542888	0.140047	0.623931
S85	S	0.548899	-0.025291	0.440792
S86	S	0.491590	0.354730	0.625066
S87	S	0.469987	0.119816	0.575491
S88	S	0.567703	0.218452	0.417892
C617	C	0.429404	0.323350	0.840661
C618	C	0.346126	0.010369	0.674103
C619	C	0.463545	0.003923	0.848831
C620	C	0.380081	0.329248	0.682049
C621	C	0.483972	0.323401	0.883457
C622	C	0.400840	0.009451	0.716631
C623	C	0.402727	0.176568	0.842128
C624	C	0.486182	0.157136	0.675968
C625	C	0.415046	0.204444	0.868812
C626	C	0.498940	0.129559	0.702872
C627	C	0.416492	0.296402	0.867734
C628	C	0.333690	0.037411	0.701416
C629	C	0.469326	0.296461	0.909184
C630	C	0.386645	0.036516	0.742604
C631	C	0.362954	0.202994	0.909117
C632	C	0.446963	0.130544	0.743131
C633	C	0.348975	0.175026	0.883771
C634	C	0.432553	0.158237	0.717585
C635	C	0.369388	0.161423	0.850039
C636	C	0.452611	0.171885	0.683546
C637	C	0.477770	0.033106	0.822207
C638	C	0.393839	0.299907	0.988557
C639	C	0.355793	0.131491	0.823559
C640	C	0.438681	0.201391	0.989702
C641	C	0.596071	0.323350	0.840661
C642	C	0.512793	0.010369	0.674103
C643	C	0.630211	0.003923	0.848831
C644	C	0.546748	0.329248	0.682049
C645	C	0.650638	0.323401	0.883457
C646	C	0.567507	0.009451	0.716631
C647	C	0.569394	0.176568	0.842128
C648	C	0.652849	0.157136	0.675968
C649	C	0.581712	0.204444	0.868812
C650	C	0.665606	0.129559	0.702872
C651	C	0.583159	0.296402	0.867734
C652	C	0.500356	0.037411	0.701416
C653	C	0.635992	0.296461	0.909184
C654	C	0.553311	0.036516	0.742604
C655	C	0.529621	0.202994	0.909117
C656	C	0.613630	0.130544	0.743131
C657	C	0.515642	0.175026	0.883771
C658	C	0.599219	0.158237	0.717585
C659	C	0.536055	0.161423	0.850039
C660	C	0.619277	0.171885	0.683546
C661	C	0.644437	0.033106	0.822207
C662	C	0.560506	0.299907	0.988557
C663	C	0.522459	0.131491	0.823559
C664	C	0.605348	0.201391	0.989702
C665	C	0.397437	0.008330	0.824636
C666	C	0.435079	0.278761	0.746739
C667	C	0.648014	0.159513	0.897380
C668	C	0.510625	0.169020	0.977117
C669	C	0.564652	0.002891	0.817133
C670	C	0.527146	0.046765	0.935083
C671	C	0.477969	0.164227	0.888521
C672	C	0.564827	0.172156	0.733161
H529	H	0.344021	0.332935	0.891173
H530	H	0.419567	0.166965	0.816427
H531	H	0.336214	0.166799	0.983516
H532	H	0.440880	0.216835	0.864212
H533	H	0.358323	0.117617	0.698343
H534	H	0.390051	0.285041	0.862853
H535	H	0.474107	0.049244	0.696629
H536	H	0.484457	0.285058	0.936254
H537	H	0.402080	0.047701	0.769599
H538	H	0.347910	0.214315	0.935536
H539	H	0.432126	0.119175	0.769684
H540	H	0.406317	0.168400	0.725088
H541	H	0.662179	0.000897	0.981166
H542	H	0.510687	0.332935	0.891173
H543	H	0.594113	0.332888	0.724201
H544	H	0.586233	0.166965	0.816427
H545	H	0.607547	0.216835	0.864212
H546	H	0.524989	0.117617	0.698343
H547	H	0.556718	0.285041	0.862853
H548	H	0.640774	0.049244	0.696629
H549	H	0.651123	0.285058	0.936254
H550	H	0.568747	0.047701	0.769599
H551	H	0.514576	0.214315	0.935536
H552	H	0.598793	0.119175	0.769684
H553	H	0.350965	0.047646	0.857437
H554	H	0.381779	0.009851	0.854490
H555	H	0.402880	0.035636	0.815892
H556	H	0.459425	0.264728	0.737852
H557	H	0.431984	0.278351	0.782044
H558	H	0.411861	0.267363	0.730189
H559	H	0.618308	0.110892	0.927301
H560	H	0.635435	0.176590	0.921583
H561	H	0.629426	0.155395	0.869771
H562	H	0.568477	0.221351	1.025886
H563	H	0.524031	0.193458	0.655336
H564	H	0.492856	0.178354	0.617915
H565	H	0.520844	0.041890	0.855869
H566	H	0.542451	-0.001078	0.839255
H567	H	0.566748	0.030917	0.810852
H568	H	0.515203	0.061930	0.907867
H569	H	0.536704	0.066344	0.959064
H570	H	0.549503	0.029721	0.925261
H571	H	0.438747	0.116308	0.886085
H572	H	0.463753	0.182870	0.909489
H573	H	0.465364	0.164290	0.856257
H574	H	0.531950	0.222238	0.754811
H575	H	0.555585	0.155612	0.759957
H576	H	0.544242	0.172064	1.040920
N89	N	0.436146	0.283751	0.901609
N90	N	0.353576	0.049619	0.735351
N91	N	0.395514	0.216770	0.901946
N92	N	0.479603	0.116976	0.736014
N93	N	0.602812	0.283751	0.901609
N94	N	0.520243	0.049619	0.735351
N95	N	0.562181	0.216770	0.901946
N96	N	0.646270	0.116976	0.736014
Ni45	Ni	0.415667	0.250495	0.945442
Ni46	Ni	0.499991	0.082666	0.779726
Ni47	Ni	0.582334	0.250495	0.945442
Ni48	Ni	0.666657	0.082666	0.779726
O177	O	0.374259	0.115896	0.794291
O178	O	0.457069	0.216992	0.960431
O179	O	0.459210	0.049169	0.792393
O180	O	0.375033	0.284117	0.958754
O181	O	0.491023	0.118720	0.827665
O182	O	0.407046	0.213805	0.993292
O183	O	0.342947	0.045053	0.827026
O184	O	0.425562	0.287586	0.993133
O185	O	0.540926	0.115896	0.794291
O186	O	0.623736	0.216992	0.960431
O187	O	0.625877	0.049169	0.792393
O188	O	0.541699	0.284117	0.958754
O189	O	0.657690	0.118720	0.827665
O190	O	0.573712	0.213805	0.993292
O191	O	0.509613	0.045053	0.827026
O192	O	0.592229	0.287586	0.993133
S89	S	0.369399	-0.017119	0.789625
S90	S	0.442107	0.323973	0.731044
S91	S	0.653669	0.115757	0.921160
S92	S	0.542888	0.140047	0.957264
S93	S	0.548899	-0.025291	0.774125
S94	S	0.491590	0.354730	0.958399
S95	S	0.469987	0.119816	0.908824
S96	S	0.567703	0.218452	0.751226
C673	C	0.429404	0.656683	0.173995
C674	C	0.346126	0.343702	0.007436
C675	C	0.463545	0.337257	0.182164
C676	C	0.380081	0.662581	0.015382
C677	C	0.483972	0.656734	0.216790
C678	C	0.400840	0.342784	0.049964
C679	C	0.402727	0.509901	0.175461
C680	C	0.486182	0.490470	0.009301
C681	C	0.415046	0.537777	0.202145
C682	C	0.498940	0.462892	0.036206
C683	C	0.416492	0.629735	0.201068
C684	C	0.333690	0.370744	0.034749
C685	C	0.469326	0.629794	0.242517
C686	C	0.386645	0.369849	0.075937
C687	C	0.362954	0.536328	0.242451
C688	C	0.446963	0.463878	0.076465
C689	C	0.348975	0.508360	0.217104
C690	C	0.432553	0.491570	0.050918
C691	C	0.369388	0.494757	0.183372
C692	C	0.452611	0.505219	0.016879
C693	C	0.477770	0.366440	0.155540
C694	C	0.393839	0.633240	0.321891
C695	C	0.355793	0.464825	0.156892
C696	C	0.438681	0.534724	0.323036
C697	C	0.596071	0.656683	0.173995
C698	C	0.512793	0.343702	0.007436
C699	C	0.630211	0.337257	0.182164
C700	C	0.546748	0.662581	0.015382
C701	C	0.650638	0.656734	0.216790
C702	C	0.567507	0.342784	0.049964
C703	C	0.569394	0.509901	0.175461
C704	C	0.652849	0.490470	0.009301
C705	C	0.581712	0.537777	0.202145
C706	C	0.665606	0.462892	0.036206
C707	C	0.583159	0.629735	0.201068
C708	C	0.500356	0.370744	0.034749
C709	C	0.635992	0.629794	0.242517
C710	C	0.553311	0.369849	0.075937
C711	C	0.529621	0.536328	0.242451
C712	C	0.613630	0.463878	0.076465
C713	C	0.515642	0.508360	0.217104
C714	C	0.599219	0.491570	0.050918
C715	C	0.536055	0.494757	0.183372
C716	C	0.619277	0.505219	0.016879
C717	C	0.644437	0.366440	0.155540
C718	C	0.560506	0.633240	0.321891
C719	C	0.522459	0.464825	0.156892
C720	C	0.605348	0.534724	0.323036
C721	C	0.397437	0.341663	0.157970
C722	C	0.435079	0.612094	0.080072
C723	C	0.648014	0.492846	0.230713
C724	C	0.510625	0.502353	0.310451
C725	C	0.564652	0.336225	0.150467
C726	C	0.527146	0.380099	0.268417
C727	C	0.477969	0.497560	0.221854
C728	C	0.564827	0.505490	0.066494
H577	H	0.344021	0.666268	0.224507
H578	H	0.419567	0.500298	0.149761
H579	H	0.336214	0.500132	0.316849
H580	H	0.440880	0.550169	0.197545
H581	H	0.358323	0.450950	0.031676
H582	H	0.390051	0.618374	0.196187
H583	H	0.474107	0.382577	0.029962
H584	H	0.484457	0.618391	0.269587
H585	H	0.402080	0.381034	0.102932
H586	H	0.347910	0.547648	0.268869
H587	H	0.432126	0.452509	0.103017
H588	H	0.406317	0.501734	0.058421
H589	H	0.662179	0.334231	0.314500
H590	H	0.510687	0.666268	0.224507
H591	H	0.594113	0.666222	0.057534
H592	H	0.586233	0.500298	0.149761
H593	H	0.607547	0.550169	0.197545
H594	H	0.524989	0.450950	0.031676
H595	H	0.556718	0.618374	0.196187
H596	H	0.640774	0.382577	0.029962
H597	H	0.651123	0.618391	0.269587
H598	H	0.568747	0.381034	0.102932
H599	H	0.514576	0.547648	0.268869
H600	H	0.598793	0.452509	0.103017
H601	H	0.350965	0.380979	0.190771
H602	H	0.381779	0.343184	0.187824
H603	H	0.402880	0.368969	0.149225
H604	H	0.459425	0.598061	0.071185
H605	H	0.431984	0.611684	0.115377
H606	H	0.411861	0.600697	0.063522
H607	H	0.618308	0.444225	0.260634
H608	H	0.635435	0.509923	0.254917
H609	H	0.629426	0.488729	0.203105
H610	H	0.568477	0.554685	0.359219
H611	H	0.524031	0.526791	-0.011330
H612	H	0.492856	0.511688	-0.048752
H613	H	0.520844	0.375224	0.189202
H614	H	0.542451	0.332256	0.172588
H615	H	0.566748	0.364250	0.144185
H616	H	0.515203	0.395263	0.241200
H617	H	0.536704	0.399678	0.292397
H618	H	0.549503	0.363055	0.258594
H619	H	0.438747	0.449641	0.219418
H620	H	0.463753	0.516203	0.242823
H621	H	0.465364	0.497623	0.189591
H622	H	0.531950	0.555572	0.088144
H623	H	0.555585	0.488945	0.093291
H624	H	0.544242	0.505397	0.374253
N97	N	0.436146	0.617084	0.234943
N98	N	0.353576	0.382952	0.068684
N99	N	0.395514	0.550103	0.235279
N100	N	0.479603	0.450309	0.069347
N101	N	0.602812	0.617084	0.234943
N102	N	0.520243	0.382952	0.068684
N103	N	0.562181	0.550103	0.235279
N104	N	0.646270	0.450309	0.069347
Ni49	Ni	0.415667	0.583829	0.278775
Ni50	Ni	0.499991	0.416000	0.113059
Ni51	Ni	0.582334	0.583829	0.278775
Ni52	Ni	0.666657	0.416000	0.113059
O193	O	0.374259	0.449230	0.127624
O194	O	0.457069	0.550326	0.293764
O195	O	0.459210	0.382502	0.125726
O196	O	0.375033	0.617451	0.292087
O197	O	0.491023	0.452053	0.160998
O198	O	0.407046	0.547138	0.326626
O199	O	0.342947	0.378386	0.160359
O200	O	0.425562	0.620919	0.326466
O201	O	0.540926	0.449230	0.127624
O202	O	0.623736	0.550326	0.293764
O203	O	0.625877	0.382502	0.125726
O204	O	0.541699	0.617451	0.292087
O205	O	0.657690	0.452053	0.160998
O206	O	0.573712	0.547138	0.326626
O207	O	0.509613	0.378386	0.160359
O208	O	0.592229	0.620919	0.326466
S97	S	0.369399	0.316214	0.122958
S98	S	0.442107	0.657306	0.064377
S99	S	0.653669	0.449090	0.254493
S100	S	0.542888	0.473380	0.290597
S101	S	0.548899	0.308042	0.107458
S102	S	0.491590	0.688064	0.291733
S103	S	0.469987	0.453149	0.242158
S104	S	0.567703	0.551786	0.084559
C729	C	0.429404	0.656683	0.507328
C730	C	0.346126	0.343702	0.340769
C731	C	0.463545	0.337257	0.515497
C732	C	0.380081	0.662581	0.348715
C733	C	0.483972	0.656734	0.550124
C734	C	0.400840	0.342784	0.383298
C735	C	0.402727	0.509901	0.508795
C736	C	0.486182	0.490470	0.342635
C737	C	0.415046	0.537777	0.535478
C738	C	0.498940	0.462892	0.369539
C739	C	0.416492	0.629735	0.534401
C740	C	0.333690	0.370744	0.368082
C741	C	0.469326	0.629794	0.575851
C742	C	0.386645	0.369849	0.409271
C743	C	0.362954	0.536328	0.575784
C744	C	0.446963	0.463878	0.409798
C745	C	0.348975	0.508360	0.550437
C746	C	0.432553	0.491570	0.384251
C747	C	0.369388	0.494757	0.516705
C748	C	0.452611	0.505219	0.350213
C749	C	0.477770	0.366440	0.488874
C750	C	0.393839	0.633240	0.655224
C751	C	0.355793	0.464825	0.490225
C752	C	0.438681	0.534724	0.656369
C753	C	0.596071	0.656683	0.507328
C754	C	0.512793	0.343702	0.340769
C755	C	0.630211	0.337257	0.515497
C756	C	0.546748	0.662581	0.348715
C757	C	0.650638	0.656734	0.550124
C758	C	0.567507	0.342784	0.383298
C759	C	0.569394	0.509901	0.508795
C760	C	0.652849	0.490470	0.342635
C761	C	0.581712	0.537777	0.535478
C762	C	0.665606	0.462892	0.369539
C763	C	0.583159	0.629735	0.534401
C764	C	0.500356	0.370744	0.368082
C765	C	0.635992	0.629794	0.575851
C766	C	0.553311	0.369849	0.409271
C767	C	0.529621	0.536328	0.575784
C768	C	0.613630	0.463878	0.409798
C769	C	0.515642	0.508360	0.550437
C770	C	0.599219	0.491570	0.384251
C771	C	0.536055	0.494757	0.516705
C772	C	0.619277	0.505219	0.350213
C773	C	0.644437	0.366440	0.488874
C774	C	0.560506	0.633240	0.655224
C775	C	0.522459	0.464825	0.490225
C776	C	0.605348	0.534724	0.656369
C777	C	0.397437	0.341663	0.491303
C778	C	0.435079	0.612094	0.413406
C779	C	0.648014	0.492846	0.564046
C780	C	0.510625	0.502353	0.643784
C781	C	0.564652	0.336225	0.483800
C782	C	0.527146	0.380099	0.601750
C783	C	0.477969	0.497560	0.555188
C784	C	0.564827	0.505490	0.399827
H625	H	0.344021	0.666268	0.557840
H626	H	0.419567	0.500298	0.483094
H627	H	0.336214	0.500132	0.650183
H628	H	0.440880	0.550169	0.530878
H629	H	0.358323	0.450950	0.365009
H630	H	0.390051	0.618374	0.529520
H631	H	0.474107	0.382577	0.363295
H632	H	0.484457	0.618391	0.602920
H633	H	0.402080	0.381034	0.436266
H634	H	0.347910	0.547648	0.602203
H635	H	0.432126	0.452509	0.436350
H636	H	0.406317	0.501734	0.391755
H637	H	0.662179	0.334231	0.647833
H638	H	0.510687	0.666268	0.557840
H639	H	0.594113	0.666222	0.390867
H640	H	0.586233	0.500298	0.483094
H641	H	0.607547	0.550169	0.530878
H642	H	0.524989	0.450950	0.365009
H643	H	0.556718	0.618374	0.529520
H644	H	0.640774	0.382577	0.363295
H645	H	0.651123	0.618391	0.602920
H646	H	0.568747	0.381034	0.436266
H647	H	0.514576	0.547648	0.602203
H648	H	0.598793	0.452509	0.436350
H649	H	0.350965	0.380979	0.524104
H650	H	0.381779	0.343184	0.521157
H651	H	0.402880	0.368969	0.482559
H652	H	0.459425	0.598061	0.404519
H653	H	0.431984	0.611684	0.448710
H654	H	0.411861	0.600697	0.396856
H655	H	0.618308	0.444225	0.593967
H656	H	0.635435	0.509923	0.588250
H657	H	0.629426	0.488729	0.536438
H658	H	0.568477	0.554685	0.692553
H659	H	0.524031	0.526791	0.322003
H660	H	0.492856	0.511688	0.284582
H661	H	0.520844	0.375224	0.522536
H662	H	0.542451	0.332256	0.505921
H663	H	0.566748	0.364250	0.477519
H664	H	0.515203	0.395263	0.574533
H665	H	0.536704	0.399678	0.625730
H666	H	0.549503	0.363055	0.591928
H667	H	0.438747	0.449641	0.552751
H668	H	0.463753	0.516203	0.576156
H669	H	0.465364	0.497623	0.522924
H670	H	0.531950	0.555572	0.421478
H671	H	0.555585	0.488945	0.426624
H672	H	0.544242	0.505397	0.707586
N105	N	0.436146	0.617084	0.568276
N106	N	0.353576	0.382952	0.402017
N107	N	0.395514	0.550103	0.568613
N108	N	0.479603	0.450309	0.402680
N109	N	0.602812	0.617084	0.568276
N110	N	0.520243	0.382952	0.402017
N111	N	0.562181	0.550103	0.568613
N112	N	0.646270	0.450309	0.402680
Ni53	Ni	0.415667	0.583829	0.612109
Ni54	Ni	0.499991	0.416000	0.446393
Ni55	Ni	0.582334	0.583829	0.612109
Ni56	Ni	0.666657	0.416000	0.446393
O209	O	0.374259	0.449230	0.460958
O210	O	0.457069	0.550326	0.627097
O211	O	0.459210	0.382502	0.459059
O212	O	0.375033	0.617451	0.625420
O213	O	0.491023	0.452053	0.494331
O214	O	0.407046	0.547138	0.659959
O215	O	0.342947	0.378386	0.493693
O216	O	0.425562	0.620919	0.659800
O217	O	0.540926	0.449230	0.460958
O218	O	0.623736	0.550326	0.627097
O219	O	0.625877	0.382502	0.459059
O220	O	0.541699	0.617451	0.625420
O221	O	0.657690	0.452053	0.494331
O222	O	0.573712	0.547138	0.659959
O223	O	0.509613	0.378386	0.493693
O224	O	0.592229	0.620919	0.659800
S105	S	0.369399	0.316214	0.456291
S106	S	0.442107	0.657306	0.397710
S107	S	0.653669	0.449090	0.587826
S108	S	0.542888	0.473380	0.623931
S109	S	0.548899	0.308042	0.440792
S110	S	0.491590	0.688064	0.625066
S111	S	0.469987	0.453149	0.575491
S112	S	0.567703	0.551786	0.417892
C785	C	0.429404	0.656683	0.840661
C786	C	0.346126	0.343702	0.674103
C787	C	0.463545	0.337257	0.848831
C788	C	0.380081	0.662581	0.682049
C789	C	0.483972	0.656734	0.883457
C790	C	0.400840	0.342784	0.716631
C791	C	0.402727	0.509901	0.842128
C792	C	0.486182	0.490470	0.675968
C793	C	0.415046	0.537777	0.868812
C794	C	0.498940	0.462892	0.702872
C795	C	0.416492	0.629735	0.867734
C796	C	0.333690	0.370744	0.701416
C797	C	0.469326	0.629794	0.909184
C798	C	0.386645	0.369849	0.742604
C799	C	0.362954	0.536328	0.909117
C800	C	0.446963	0.463878	0.743131
C801	C	0.348975	0.508360	0.883771
C802	C	0.432553	0.491570	0.717585
C803	C	0.369388	0.494757	0.850039
C804	C	0.452611	0.505219	0.683546
C805	C	0.477770	0.366440	0.822207
C806	C	0.393839	0.633240	0.988557
C807	C	0.355793	0.464825	0.823559
C808	C	0.438681	0.534724	0.989702
C809	C	0.596071	0.656683	0.840661
C810	C	0.512793	0.343702	0.674103
C811	C	0.630211	0.337257	0.848831
C812	C	0.546748	0.662581	0.682049
C813	C	0.650638	0.656734	0.883457
C814	C	0.567507	0.342784	0.716631
C815	C	0.569394	0.509901	0.842128
C816	C	0.652849	0.490470	0.675968
C817	C	0.581712	0.537777	0.868812
C818	C	0.665606	0.462892	0.702872
C819	C	0.583159	0.629735	0.867734
C820	C	0.500356	0.370744	0.701416
C821	C	0.635992	0.629794	0.909184
C822	C	0.553311	0.369849	0.742604
C823	C	0.529621	0.536328	0.909117
C824	C	0.613630	0.463878	0.743131
C825	C	0.515642	0.508360	0.883771
C826	C	0.599219	0.491570	0.717585
C827	C	0.536055	0.494757	0.850039
C828	C	0.619277	0.505219	0.683546
C829	C	0.644437	0.366440	0.822207
C830	C	0.560506	0.633240	0.988557
C831	C	0.522459	0.464825	0.823559
C832	C	0.605348	0.534724	0.989702
C833	C	0.397437	0.341663	0.824636
C834	C	0.435079	0.612094	0.746739
C835	C	0.648014	0.492846	0.897380
C836	C	0.510625	0.502353	0.977117
C837	C	0.564652	0.336225	0.817133
C838	C	0.527146	0.380099	0.935083
C839	C	0.477969	0.497560	0.888521
C840	C	0.564827	0.505490	0.733161
H673	H	0.344021	0.666268	0.891173
H674	H	0.419567	0.500298	0.816427
H675	H	0.336214	0.500132	0.983516
H676	H	0.440880	0.550169	0.864212
H677	H	0.358323	0.450950	0.698343
H678	H	0.390051	0.618374	0.862853
H679	H	0.474107	0.382577	0.696629
H680	H	0.484457	0.618391	0.936254
H681	H	0.402080	0.381034	0.769599
H682	H	0.347910	0.547648	0.935536
H683	H	0.432126	0.452509	0.769684
H684	H	0.406317	0.501734	0.725088
H685	H	0.662179	0.334231	0.981166
H686	H	0.510687	0.666268	0.891173
H687	H	0.594113	0.666222	0.724201
H688	H	0.586233	0.500298	0.816427
H689	H	0.607547	0.550169	0.864212
H690	H	0.524989	0.450950	0.698343
H691	H	0.556718	0.618374	0.862853
H692	H	0.640774	0.382577	0.696629
H693	H	0.651123	0.618391	0.936254
H694	H	0.568747	0.381034	0.769599
H695	H	0.514576	0.547648	0.935536
H696	H	0.598793	0.452509	0.769684
H697	H	0.350965	0.380979	0.857437
H698	H	0.381779	0.343184	0.854490
H699	H	0.402880	0.368969	0.815892
H700	H	0.459425	0.598061	0.737852
H701	H	0.431984	0.611684	0.782044
H702	H	0.411861	0.600697	0.730189
H703	H	0.618308	0.444225	0.927301
H704	H	0.635435	0.509923	0.921583
H705	H	0.629426	0.488729	0.869771
H706	H	0.568477	0.554685	1.025886
H707	H	0.524031	0.526791	0.655336
H708	H	0.492856	0.511688	0.617915
H709	H	0.520844	0.375224	0.855869
H710	H	0.542451	0.332256	0.839255
H711	H	0.566748	0.364250	0.810852
H712	H	0.515203	0.395263	0.907867
H713	H	0.536704	0.399678	0.959064
H714	H	0.549503	0.363055	0.925261
H715	H	0.438747	0.449641	0.886085
H716	H	0.463753	0.516203	0.909489
H717	H	0.465364	0.497623	0.856257
H718	H	0.531950	0.555572	0.754811
H719	H	0.555585	0.488945	0.759957
H720	H	0.544242	0.505397	1.040920
N113	N	0.436146	0.617084	0.901609
N114	N	0.353576	0.382952	0.735351
N115	N	0.395514	0.550103	0.901946
N116	N	0.479603	0.450309	0.736014
N117	N	0.602812	0.617084	0.901609
N118	N	0.520243	0.382952	0.735351
N119	N	0.562181	0.550103	0.901946
N120	N	0.646270	0.450309	0.736014
Ni57	Ni	0.415667	0.583829	0.945442
Ni58	Ni	0.499991	0.416000	0.779726
Ni59	Ni	0.582334	0.583829	0.945442
Ni60	Ni	0.666657	0.416000	0.779726
O225	O	0.374259	0.449230	0.794291
O226	O	0.457069	0.550326	0.960431
O227	O	0.459210	0.382502	0.792393
O228	O	0.375033	0.617451	0.958754
O229	O	0.491023	0.452053	0.827665
O230	O	0.407046	0.547138	0.993292
O231	O	0.342947	0.378386	0.827026
O232	O	0.425562	0.620919	0.993133
O233	O	0.540926	0.449230	0.794291
O234	O	0.623736	0.550326	0.960431
O235	O	0.625877	0.382502	0.792393
O236	O	0.541699	0.617451	0.958754
O237	O	0.657690	0.452053	0.827665
O238	O	0.573712	0.547138	0.993292
O239	O	0.509613	0.378386	0.827026
O240	O	0.592229	0.620919	0.993133
S113	S	0.369399	0.316214	0.789625
S114	S	0.442107	0.657306	0.731044
S115	S	0.653669	0.449090	0.921160
S116	S	0.542888	0.473380	0.957264
S117	S	0.548899	0.308042	0.774125
S118	S	0.491590	0.688064	0.958399
S119	S	0.469987	0.453149	0.908824
S120	S	0.567703	0.551786	0.751226
C841	C	0.429404	0.990017	0.173995
C842	C	0.346126	0.677035	0.007436
C843	C	0.463545	0.670590	0.182164
C844	C	0.380081	0.995915	0.015382
C845	C	0.483972	0.990067	0.216790
C846	C	0.400840	0.676118	0.049964
C847	C	0.402727	0.843235	0.175461
C848	C	0.486182	0.823803	0.009301
C849	C	0.415046	0.871110	0.202145
C850	C	0.498940	0.796226	0.036206
C851	C	0.416492	0.963069	0.201068
C852	C	0.333690	0.704077	0.034749
C853	C	0.469326	0.963128	0.242517
C854	C	0.386645	0.703182	0.075937
C855	C	0.362954	0.869661	0.242451
C856	C	0.446963	0.797211	0.076465
C857	C	0.348975	0.841693	0.217104
C858	C	0.432553	0.824904	0.050918
C859	C	0.369388	0.828090	0.183372
C860	C	0.452611	0.838552	0.016879
C861	C	0.477770	0.699773	0.155540
C862	C	0.393839	0.966573	0.321891
C863	C	0.355793	0.798158	0.156892
C864	C	0.438681	0.868057	0.323036
C865	C	0.596071	0.990017	0.173995
C866	C	0.512793	0.677035	0.007436
C867	C	0.630211	0.670590	0.182164
C868	C	0.546748	0.995915	0.015382
C869	C	0.650638	0.990067	0.216790
C870	C	0.567507	0.676118	0.049964
C871	C	0.569394	0.843235	0.175461
C872	C	0.652849	0.823803	0.009301
C873	C	0.581712	0.871110	0.202145
C874	C	0.665606	0.796226	0.036206
C875	C	0.583159	0.963069	0.201068
C876	C	0.500356	0.704077	0.034749
C877	C	0.635992	0.963128	0.242517
C878	C	0.553311	0.703182	0.075937
C879	C	0.529621	0.869661	0.242451
C880	C	0.613630	0.797211	0.076465
C881	C	0.515642	0.841693	0.217104
C882	C	0.599219	0.824904	0.050918
C883	C	0.536055	0.828090	0.183372
C884	C	0.619277	0.838552	0.016879
C885	C	0.644437	0.699773	0.155540
C886	C	0.560506	0.966573	0.321891
C887	C	0.522459	0.798158	0.156892
C888	C	0.605348	0.868057	0.323036
C889	C	0.397437	0.674996	0.157970
C890	C	0.435079	0.945428	0.080072
C891	C	0.648014	0.826179	0.230713
C892	C	0.510625	0.835687	0.310451
C893	C	0.564652	0.669558	0.150467
C894	C	0.527146	0.713432	0.268417
C895	C	0.477969	0.830893	0.221854
C896	C	0.564827	0.838823	0.066494
H721	H	0.344021	0.999602	0.224507
H722	H	0.419567	0.833632	0.149761
H723	H	0.336214	0.833466	0.316849
H724	H	0.440880	0.883502	0.197545
H725	H	0.358323	0.784284	0.031676
H726	H	0.390051	0.951708	0.196187
H727	H	0.474107	0.715911	0.029962
H728	H	0.484457	0.951724	0.269587
H729	H	0.402080	0.714368	0.102932
H730	H	0.347910	0.880981	0.268869
H731	H	0.432126	0.785842	0.103017
H732	H	0.406317	0.835067	0.058421
H733	H	0.662179	0.667564	0.314500
H734	H	0.510687	0.999602	0.224507
H735	H	0.594113	0.999555	0.057534
H736	H	0.586233	0.833632	0.149761
H737	H	0.607547	0.883502	0.197545
H738	H	0.524989	0.784284	0.031676
H739	H	0.556718	0.951708	0.196187
H740	H	0.640774	0.715911	0.029962
H741	H	0.651123	0.951724	0.269587
H742	H	0.568747	0.714368	0.102932
H743	H	0.514576	0.880981	0.268869
H744	H	0.598793	0.785842	0.103017
H745	H	0.350965	0.714312	0.190771
H746	H	0.381779	0.676518	0.187824
H747	H	0.402880	0.702303	0.149225
H748	H	0.459425	0.931394	0.071185
H749	H	0.431984	0.945017	0.115377
H750	H	0.411861	0.934030	0.063522
H751	H	0.618308	0.777559	0.260634
H752	H	0.635435	0.843256	0.254917
H753	H	0.629426	0.822062	0.203105
H754	H	0.568477	0.888018	0.359219
H755	H	0.524031	0.860125	-0.011330
H756	H	0.492856	0.845021	-0.048752
H757	H	0.520844	0.708557	0.189202
H758	H	0.542451	0.665589	0.172588
H759	H	0.566748	0.697583	0.144185
H760	H	0.515203	0.728596	0.241200
H761	H	0.536704	0.733011	0.292397
H762	H	0.549503	0.696388	0.258594
H763	H	0.438747	0.782975	0.219418
H764	H	0.463753	0.849536	0.242823
H765	H	0.465364	0.830957	0.189591
H766	H	0.531950	0.888905	0.088144
H767	H	0.555585	0.822278	0.093291
H768	H	0.544242	0.838731	0.374253
N121	N	0.436146	0.950418	0.234943
N122	N	0.353576	0.716286	0.068684
N123	N	0.395514	0.883437	0.235279
N124	N	0.479603	0.783643	0.069347
N125	N	0.602812	0.950418	0.234943
N126	N	0.520243	0.716286	0.068684
N127	N	0.562181	0.883437	0.235279
N128	N	0.646270	0.783643	0.069347
Ni61	Ni	0.415667	0.917162	0.278775
Ni62	Ni	0.499991	0.749333	0.113059
Ni63	Ni	0.582334	0.917162	0.278775
Ni64	Ni	0.666657	0.749333	0.113059
O241	O	0.374259	0.782563	0.127624
O242	O	0.457069	0.883659	0.293764
O243	O	0.459210	0.715836	0.125726
O244	O	0.375033	0.950784	0.292087
O245	O	0.491023	0.785387	0.160998
O246	O	0.407046	0.880472	0.326626
O247	O	0.342947	0.711719	0.160359
O248	O	0.425562	0.954253	0.326466
O249	O	0.540926	0.782563	0.127624
O250	O	0.623736	0.883659	0.293764
O251	O	0.625877	0.715836	0.125726
O252	O	0.541699	0.950784	0.292087
O253	O	0.657690	0.785387	0.160998
O254	O	0.573712	0.880472	0.326626
O255	O	0.509613	0.711719	0.160359
O256	O	0.592229	0.954253	0.326466
S121	S	0.369399	0.649548	0.122958
S122	S	0.442107	0.990639	0.064377
S123	S	0.653669	0.782424	0.254493
S124	S	0.542888	0.806713	0.290597
S125	S	0.548899	0.641375	0.107458
S126	S	0.491590	1.021397	0.291733
S127	S	0.469987	0.786482	0.242158
S128	S	0.567703	0.885119	0.084559
C897	C	0.429404	0.990017	0.507328
C898	C	0.346126	0.677035	0.340769
C899	C	0.463545	0.670590	0.515497
C900	C	0.380081	0.995915	0.348715
C901	C	0.483972	0.990067	0.550124
C902	C	0.400840	0.676118	0.383298
C903	C	0.402727	0.843235	0.508795
C904	C	0.486182	0.823803	0.342635
C905	C	0.415046	0.871110	0.535478
C906	C	0.498940	0.796226	0.369539
C907	C	0.416492	0.963069	0.534401
C908	C	0.333690	0.704077	0.368082
C909	C	0.469326	0.963128	0.575851
C910	C	0.386645	0.703182	0.409271
C911	C	0.362954	0.869661	0.575784
C912	C	0.446963	0.797211	0.409798
C913	C	0.348975	0.841693	0.550437
C914	C	0.432553	0.824904	0.384251
C915	C	0.369388	0.828090	0.516705
C916	C	0.452611	0.838552	0.350213
C917	C	0.477770	0.699773	0.488874
C918	C	0.393839	0.966573	0.655224
C919	C	0.355793	0.798158	0.490225
C920	C	0.438681	0.868057	0.656369
C921	C	0.596071	0.990017	0.507328
C922	C	0.512793	0.677035	0.340769
C923	C	0.630211	0.670590	0.515497
C924	C	0.546748	0.995915	0.348715
C925	C	0.650638	0.990067	0.550124
C926	C	0.567507	0.676118	0.383298
C927	C	0.569394	0.843235	0.508795
C928	C	0.652849	0.823803	0.342635
C929	C	0.581712	0.871110	0.535478
C930	C	0.665606	0.796226	0.369539
C931	C	0.583159	0.963069	0.534401
C932	C	0.500356	0.704077	0.368082
C933	C	0.635992	0.963128	0.575851
C934	C	0.553311	0.703182	0.409271
C935	C	0.529621	0.869661	0.575784
C936	C	0.613630	0.797211	0.409798
C937	C	0.515642	0.841693	0.550437
C938	C	0.599219	0.824904	0.384251
C939	C	0.536055	0.828090	0.516705
C940	C	0.619277	0.838552	0.350213
C941	C	0.644437	0.699773	0.488874
C942	C	0.560506	0.966573	0.655224
C943	C	0.522459	0.798158	0.490225
C944	C	0.605348	0.868057	0.656369
C945	C	0.397437	0.674996	0.491303
C946	C	0.435079	0.945428	0.413406
C947	C	0.648014	0.826179	0.564046
C948	C	0.510625	0.835687	0.643784
C949	C	0.564652	0.669558	0.483800
C950	C	0.527146	0.713432	0.601750
C951	C	0.477969	0.830893	0.555188
C952	C	0.564827	0.838823	0.399827
H769	H	0.344021	0.999602	0.557840
H770	H	0.419567	0.833632	0.483094
H771	H	0.336214	0.833466	0.650183
H772	H	0.440880	0.883502	0.530878
H773	H	0.358323	0.784284	0.365009
H774	H	0.390051	0.951708	0.529520
H775	H	0.474107	0.715911	0.363295
H776	H	0.484457	0.951724	0.602920
H777	H	0.402080	0.714368	0.436266
H778	H	0.347910	0.880981	0.602203
H779	H	0.432126	0.785842	0.436350
H780	H	0.406317	0.835067	0.391755
H781	H	0.662179	0.667564	0.647833
H782	H	0.510687	0.999602	0.557840
H783	H	0.594113	0.999555	0.390867
H784	H	0.586233	0.833632	0.483094
H785	H	0.607547	0.883502	0.530878
H786	H	0.524989	0.784284	0.365009
H787	H	0.556718	0.951708	0.529520
H788	H	0.640774	0.715911	0.363295
H789	H	0.651123	0.951724	0.602920
H790	H	0.568747	0.714368	0.436266
H791	H	0.514576	0.880981	0.602203
H792	H	0.598793	0.785842	0.436350
H793	H	0.350965	0.714312	0.524104
H794	H	0.381779	0.676518	0.521157
H795	H	0.402880	0.702303	0.482559
H796	H	0.459425	0.931394	0.404519
H797	H	0.431984	0.945017	0.448710
H798	H	0.411861	0.934030	0.396856
H799	H	0.618308	0.777559	0.593967
H800	H	0.635435	0.843256	0.588250
H801	H	0.629426	0.822062	0.536438
H802	H	0.568477	0.888018	0.692553
H803	H	0.524031	0.860125	0.322003
H804	H	0.492856	0.845021	0.284582
H805	H	0.520844	0.708557	0.522536
H806	H	0.542451	0.665589	0.505921
H807	H	0.566748	0.697583	0.477519
H808	H	0.515203	0.728596	0.574533
H809	H	0.536704	0.733011	0.625730
H810	H	0.549503	0.696388	0.591928
H811	H	0.438747	0.782975	0.552751
H812	H	0.463753	0.849536	0.576156
H813	H	0.465364	0.830957	0.522924
H814	H	0.531950	0.888905	0.421478
H815	H	0.555585	0.822278	0.426624
H816	H	0.544242	0.838731	0.707586
N129	N	0.436146	0.950418	0.568276
N130	N	0.353576	0.716286	0.402017
N131	N	0.395514	0.883437	0.568613
N132	N	0.479603	0.783643	0.402680
N133	N	0.602812	0.950418	0.568276
N134	N	0.520243	0.716286	0.402017
N135	N	0.562181	0.883437	0.568613
N136	N	0.646270	0.783643	0.402680
Ni65	Ni	0.415667	0.917162	0.612109
Ni66	Ni	0.499991	0.749333	0.446393
Ni67	Ni	0.582334	0.917162	0.612109
Ni68	Ni	0.666657	0.749333	0.446393
O257	O	0.374259	0.782563	0.460958
O258	O	0.457069	0.883659	0.627097
O259	O	0.459210	0.715836	0.459059
O260	O	0.375033	0.950784	0.625420
O261	O	0.491023	0.785387	0.494331
O262	O	0.407046	0.880472	0.659959
O263	O	0.342947	0.711719	0.493693
O264	O	0.425562	0.954253	0.659800
O265	O	0.540926	0.782563	0.460958
O266	O	0.623736	0.883659	0.627097
O267	O	0.625877	0.715836	0.459059
O268	O	0.541699	0.950784	0.625420
O269	O	0.657690	0.785387	0.494331
O270	O	0.573712	0.880472	0.659959
O271	O	0.509613	0.711719	0.493693
O272	O	0.592229	0.954253	0.659800
S129	S	0.369399	0.649548	0.456291
S130	S	0.442107	0.990639	0.397710
S131	S	0.653669	0.782424	0.587826
S132	S	0.542888	0.806713	0.623931
S133	S	0.548899	0.641375	0.440792
S134	S	0.491590	1.021397	0.625066
S135	S	0.469987	0.786482	0.575491
S136	S	0.567703	0.885119	0.417892
C953	C	0.429404	0.990017	0.840661
C954	C	0.346126	0.677035	0.674103
C955	C	0.463545	0.670590	0.848831
C956	C	0.380081	0.995915	0.682049
C957	C	0.483972	0.990067	0.883457
C958	C	0.400840	0.676118	0.716631
C959	C	0.402727	0.843235	0.842128
C960	C	0.486182	0.823803	0.675968
C961	C	0.415046	0.871110	0.868812
C962	C	0.498940	0.796226	0.702872
C963	C	0.416492	0.963069	0.867734
C964	C	0.333690	0.704077	0.701416
C965	C	0.469326	0.963128	0.909184
C966	C	0.386645	0.703182	0.742604
C967	C	0.362954	0.869661	0.909117
C968	C	0.446963	0.797211	0.743131
C969	C	0.348975	0.841693	0.883771
C970	C	0.432553	0.824904	0.717585
C971	C	0.369388	0.828090	0.850039
C972	C	0.452611	0.838552	0.683546
C973	C	0.477770	0.699773	0.822207
C974	C	0.393839	0.966573	0.988557
C975	C	0.355793	0.798158	0.823559
C976	C	0.438681	0.868057	0.989702
C977	C	0.596071	0.990017	0.840661
C978	C	0.512793	0.677035	0.674103
C979	C	0.630211	0.670590	0.848831
C980	C	0.546748	0.995915	0.682049
C981	C	0.650638	0.990067	0.883457
C982	C	0.567507	0.676118	0.716631
C983	C	0.569394	0.843235	0.842128
C984	C	0.652849	0.823803	0.675968
C985	C	0.581712	0.871110	0.868812
C986	C	0.665606	0.796226	0.702872
C987	C	0.583159	0.963069	0.867734
C988	C	0.500356	0.704077	0.701416
C989	C	0.635992	0.963128	0.909184
C990	C	0.553311	0.703182	0.742604
C991	C	0.529621	0.869661	0.909117
C992	C	0.613630	0.797211	0.743131
C993	C	0.515642	0.841693	0.883771
C994	C	0.599219	0.824904	0.717585
C995	C	0.536055	0.828090	0.850039
C996	C	0.619277	0.838552	0.683546
C997	C	0.644437	0.699773	0.822207
C998	C	0.560506	0.966573	0.988557
C999	C	0.522459	0.798158	0.823559
C1000	C	0.605348	0.868057	0.989702
C1001	C	0.397437	0.674996	0.824636
C1002	C	0.435079	0.945428	0.746739
C1003	C	0.648014	0.826179	0.897380
C1004	C	0.510625	0.835687	0.977117
C1005	C	0.564652	0.669558	0.817133
C1006	C	0.527146	0.713432	0.935083
C1007	C	0.477969	0.830893	0.888521
C1008	C	0.564827	0.838823	0.733161
H817	H	0.344021	0.999602	0.891173
H818	H	0.419567	0.833632	0.816427
H819	H	0.336214	0.833466	0.983516
H820	H	0.440880	0.883502	0.864212
H821	H	0.358323	0.784284	0.698343
H822	H	0.390051	0.951708	0.862853
H823	H	0.474107	0.715911	0.696629
H824	H	0.484457	0.951724	0.936254
H825	H	0.402080	0.714368	0.769599
H826	H	0.347910	0.880981	0.935536
H827	H	0.432126	0.785842	0.769684
H828	H	0.406317	0.835067	0.725088
H829	H	0.662179	0.667564	0.981166
H830	H	0.510687	0.999602	0.891173
H831	H	0.594113	0.999555	0.724201
H832	H	0.586233	0.833632	0.816427
H833	H	0.607547	0.883502	0.864212
H834	H	0.524989	0.784284	0.698343
H835	H	0.556718	0.951708	0.862853
H836	H	0.640774	0.715911	0.696629
H837	H	0.651123	0.951724	0.936254
H838	H	0.568747	0.714368	0.769599
H839	H	0.514576	0.880981	0.935536
H840	H	0.598793	0.785842	0.769684
H841	H	0.350965	0.714312	0.857437
H842	H	0.381779	0.676518	0.854490
H843	H	0.402880	0.702303	0.815892
H844	H	0.459425	0.931394	0.737852
H845	H	0.431984	0.945017	0.782044
H846	H	0.411861	0.934030	0.730189
H847	H	0.618308	0.777559	0.927301
H848	H	0.635435	0.843256	0.921583
H849	H	0.629426	0.822062	0.869771
H850	H	0.568477	0.888018	1.025886
H851	H	0.524031	0.860125	0.655336
H852	H	0.492856	0.845021	0.617915
H853	H	0.520844	0.708557	0.855869
H854	H	0.542451	0.665589	0.839255
H855	H	0.566748	0.697583	0.810852
H856	H	0.515203	0.728596	0.907867
H857	H	0.536704	0.733011	0.959064
H858	H	0.549503	0.696388	0.925261
H859	H	0.438747	0.782975	0.886085
H860	H	0.463753	0.849536	0.909489
H861	H	0.465364	0.830957	0.856257
H862	H	0.531950	0.888905	0.754811
H863	H	0.555585	0.822278	0.759957
H864	H	0.544242	0.838731	1.040920
N137	N	0.436146	0.950418	0.901609
N138	N	0.353576	0.716286	0.735351
N139	N	0.395514	0.883437	0.901946
N140	N	0.479603	0.783643	0.736014
N141	N	0.602812	0.950418	0.901609
N142	N	0.520243	0.716286	0.735351
N143	N	0.562181	0.883437	0.901946
N144	N	0.646270	0.783643	0.736014
Ni69	Ni	0.415667	0.917162	0.945442
Ni70	Ni	0.499991	0.749333	0.779726
Ni71	Ni	0.582334	0.917162	0.945442
Ni72	Ni	0.666657	0.749333	0.779726
O273	O	0.374259	0.782563	0.794291
O274	O	0.457069	0.883659	0.960431
O275	O	0.459210	0.715836	0.792393
O276	O	0.375033	0.950784	0.958754
O277	O	0.491023	0.785387	0.827665
O278	O	0.407046	0.880472	0.993292
O279	O	0.342947	0.711719	0.827026
O280	O	0.425562	0.954253	0.993133
O281	O	0.540926	0.782563	0.794291
O282	O	0.623736	0.883659	0.960431
O283	O	0.625877	0.715836	0.792393
O284	O	0.541699	0.950784	0.958754
O285	O	0.657690	0.785387	0.827665
O286	O	0.573712	0.880472	0.993292
O287	O	0.509613	0.711719	0.827026
O288	O	0.592229	0.954253	0.993133
S137	S	0.369399	0.649548	0.789625
S138	S	0.442107	0.990639	0.731044
S139	S	0.653669	0.782424	0.921160
S140	S	0.542888	0.806713	0.957264
S141	S	0.548899	0.641375	0.774125
S142	S	0.491590	1.021397	0.958399
S143	S	0.469987	0.786482	0.908824
S144	S	0.567703	0.885119	0.751226
C1009	C	0.762737	0.323350	0.173995
C1010	C	0.679460	0.010369	0.007436
C1011	C	0.796878	0.003923	0.182164
C1012	C	0.713415	0.329248	0.015382
C1013	C	0.817305	0.323401	0.216790
C1014	C	0.734173	0.009451	0.049964
C1015	C	0.736060	0.176568	0.175461
C1016	C	0.819515	0.157136	0.009301
C1017	C	0.748379	0.204444	0.202145
C1018	C	0.832273	0.129559	0.036206
C1019	C	0.749825	0.296402	0.201068
C1020	C	0.667023	0.037411	0.034749
C1021	C	0.802659	0.296461	0.242517
C1022	C	0.719978	0.036516	0.075937
C1023	C	0.696287	0.202994	0.242451
C1024	C	0.780297	0.130544	0.076465
C1025	C	0.682308	0.175026	0.217104
C1026	C	0.765886	0.158237	0.050918
C1027	C	0.702721	0.161423	0.183372
C1028	C	0.785944	0.171885	0.016879
C1029	C	0.811103	0.033106	0.155540
C1030	C	0.727172	0.299907	0.321891
C1031	C	0.689126	0.131491	0.156892
C1032	C	0.772014	0.201391	0.323036
C1033	C	0.929404	0.323350	0.173995
C1034	C	0.846126	0.010369	0.007436
C1035	C	0.963545	0.003923	0.182164
C1036	C	0.880081	0.329248	0.015382
C1037	C	0.983972	0.323401	0.216790
C1038	C	0.900840	0.009451	0.049964
C1039	C	0.902727	0.176568	0.175461
C1040	C	0.986182	0.157136	0.009301
C1041	C	0.915046	0.204444	0.202145
C1042	C	0.998940	0.129559	0.036206
C1043	C	0.916492	0.296402	0.201068
C1044	C	0.833690	0.037411	0.034749
C1045	C	0.969326	0.296461	0.242517
C1046	C	0.886645	0.036516	0.075937
C1047	C	0.862954	0.202994	0.242451
C1048	C	0.946963	0.130544	0.076465
C1049	C	0.848975	0.175026	0.217104
C1050	C	0.932553	0.158237	0.050918
C1051	C	0.869388	0.161423	0.183372
C1052	C	0.952611	0.171885	0.016879
C1053	C	0.977770	0.033106	0.155540
C1054	C	0.893839	0.299907	0.321891
C1055	C	0.855792	0.131491	0.156892
C1056	C	0.938681	0.201391	0.323036
C1057	C	0.730770	0.008330	0.157970
C1058	C	0.768412	0.278761	0.080072
C1059	C	0.981347	0.159513	0.230713
C1060	C	0.843959	0.169020	0.310451
C1061	C	0.897986	0.002891	0.150467
C1062	C	0.860479	0.046765	0.268417
C1063	C	0.811303	0.164227	0.221854
C1064	C	0.898160	0.172156	0.066494
H865	H	0.677354	0.332935	0.224507
H866	H	0.752900	0.166965	0.149761
H867	H	0.669547	0.166799	0.316849
H868	H	0.774214	0.216835	0.197545
H869	H	0.691656	0.117617	0.031676
H870	H	0.723385	0.285041	0.196187
H871	H	0.807441	0.049244	0.029962
H872	H	0.817790	0.285058	0.269587
H873	H	0.735413	0.047701	0.102932
H874	H	0.681243	0.214315	0.268869
H875	H	0.765459	0.119175	0.103017
H876	H	0.739651	0.168400	0.058421
H877	H	0.995513	0.000897	0.314500
H878	H	0.844021	0.332935	0.224507
H879	H	0.927447	0.332888	0.057534
H880	H	0.919567	0.166965	0.149761
H881	H	0.940880	0.216835	0.197545
H882	H	0.858323	0.117617	0.031676
H883	H	0.890051	0.285041	0.196187
H884	H	0.974107	0.049244	0.029962
H885	H	0.984457	0.285058	0.269587
H886	H	0.902080	0.047701	0.102932
H887	H	0.847910	0.214315	0.268869
H888	H	0.932126	0.119175	0.103017
H889	H	0.684298	0.047646	0.190771
H890	H	0.715113	0.009851	0.187824
H891	H	0.736213	0.035636	0.149225
H892	H	0.792758	0.264728	0.071185
H893	H	0.765318	0.278351	0.115377
H894	H	0.745195	0.267363	0.063522
H895	H	0.951641	0.110892	0.260634
H896	H	0.968768	0.176590	0.254917
H897	H	0.962759	0.155395	0.203105
H898	H	0.901811	0.221351	0.359219
H899	H	0.857364	0.193458	-0.011330
H900	H	0.826189	0.178354	-0.048752
H901	H	0.854177	0.041890	0.189202
H902	H	0.875784	-0.001078	0.172588
H903	H	0.900081	0.030917	0.144185
H904	H	0.848537	0.061930	0.241200
H905	H	0.870037	0.066344	0.292397
H906	H	0.882837	0.029721	0.258594
H907	H	0.772080	0.116308	0.219418
H908	H	0.797086	0.182870	0.242823
H909	H	0.798697	0.164290	0.189591
H910	H	0.865284	0.222238	0.088144
H911	H	0.888918	0.155612	0.093291
H912	H	0.877576	0.172064	0.374253
N145	N	0.769479	0.283751	0.234943
N146	N	0.686910	0.049619	0.068684
N147	N	0.728847	0.216770	0.235279
N148	N	0.812937	0.116976	0.069347
N149	N	0.936146	0.283751	0.234943
N150	N	0.853576	0.049619	0.068684
N151	N	0.895514	0.216770	0.235279
N152	N	0.979603	0.116976	0.069347
Ni73	Ni	0.749001	0.250495	0.278775
Ni74	Ni	0.833324	0.082666	0.113059
Ni75	Ni	0.915667	0.250495	0.278775
Ni76	Ni	0.999991	0.082666	0.113059
O289	O	0.707593	0.115896	0.127624
O290	O	0.790403	0.216992	0.293764
O291	O	0.792543	0.049169	0.125726
O292	O	0.708366	0.284117	0.292087
O293	O	0.824356	0.118720	0.160998
O294	O	0.740379	0.213805	0.326626
O295	O	0.676280	0.045053	0.160359
O296	O	0.758895	0.287586	0.326466
O297	O	0.874260	0.115896	0.127624
O298	O	0.957069	0.216992	0.293764
O299	O	0.959210	0.049169	0.125726
O300	O	0.875033	0.284117	0.292087
O301	O	0.991023	0.118720	0.160998
O302	O	0.907046	0.213805	0.326626
O303	O	0.842947	0.045053	0.160359
O304	O	0.925562	0.287586	0.326466
S145	S	0.702732	-0.017119	0.122958
S146	S	0.775441	0.323973	0.064377
S147	S	0.987003	0.115757	0.254493
S148	S	0.876221	0.140047	0.290597
S149	S	0.882233	-0.025291	0.107458
S150	S	0.824923	0.354730	0.291733
S151	S	0.803321	0.119816	0.242158
S152	S	0.901037	0.218452	0.084559
C1065	C	0.762737	0.323350	0.507328
C1066	C	0.679460	0.010369	0.340769
C1067	C	0.796878	0.003923	0.515497
C1068	C	0.713415	0.329248	0.348715
C1069	C	0.817305	0.323401	0.550124
C1070	C	0.734173	0.009451	0.383298
C1071	C	0.736060	0.176568	0.508795
C1072	C	0.819515	0.157136	0.342635
C1073	C	0.748379	0.204444	0.535478
C1074	C	0.832273	0.129559	0.369539
C1075	C	0.749825	0.296402	0.534401
C1076	C	0.667023	0.037411	0.368082
C1077	C	0.802659	0.296461	0.575851
C1078	C	0.719978	0.036516	0.409271
C1079	C	0.696287	0.202994	0.575784
C1080	C	0.780297	0.130544	0.409798
C1081	C	0.682308	0.175026	0.550437
C1082	C	0.765886	0.158237	0.384251
C1083	C	0.702721	0.161423	0.516705
C1084	C	0.785944	0.171885	0.350213
C1085	C	0.811103	0.033106	0.488874
C1086	C	0.727172	0.299907	0.655224
C1087	C	0.689126	0.131491	0.490225
C1088	C	0.772014	0.201391	0.656369
C1089	C	0.929404	0.323350	0.507328
C1090	C	0.846126	0.010369	0.340769
C1091	C	0.963545	0.003923	0.515497
C1092	C	0.880081	0.329248	0.348715
C1093	C	0.983972	0.323401	0.550124
C1094	C	0.900840	0.009451	0.383298
C1095	C	0.902727	0.176568	0.508795
C1096	C	0.986182	0.157136	0.342635
C1097	C	0.915046	0.204444	0.535478
C1098	C	0.998940	0.129559	0.369539
C1099	C	0.916492	0.296402	0.534401
C1100	C	0.833690	0.037411	0.368082
C1101	C	0.969326	0.296461	0.575851
C1102	C	0.886645	0.036516	0.409271
C1103	C	0.862954	0.202994	0.575784
C1104	C	0.946963	0.130544	0.409798
C1105	C	0.848975	0.175026	0.550437
C1106	C	0.932553	0.158237	0.384251
C1107	C	0.869388	0.161423	0.516705
C1108	C	0.952611	0.171885	0.350213
C1109	C	0.977770	0.033106	0.488874
C1110	C	0.893839	0.299907	0.655224
C1111	C	0.855792	0.131491	0.490225
C1112	C	0.938681	0.201391	0.656369
C1113	C	0.730770	0.008330	0.491303
C1114	C	0.768412	0.278761	0.413406
C1115	C	0.981347	0.159513	0.564046
C1116	C	0.843959	0.169020	0.643784
C1117	C	0.897986	0.002891	0.483800
C1118	C	0.860479	0.046765	0.601750
C1119	C	0.811303	0.164227	0.555188
C1120	C	0.898160	0.172156	0.399827
H913	H	0.677354	0.332935	0.557840
H914	H	0.752900	0.166965	0.483094
H915	H	0.669547	0.166799	0.650183
H916	H	0.774214	0.216835	0.530878
H917	H	0.691656	0.117617	0.365009
H918	H	0.723385	0.285041	0.529520
H919	H	0.807441	0.049244	0.363295
H920	H	0.817790	0.285058	0.602920
H921	H	0.735413	0.047701	0.436266
H922	H	0.681243	0.214315	0.602203
H923	H	0.765459	0.119175	0.436350
H924	H	0.739651	0.168400	0.391755
H925	H	0.995513	0.000897	0.647833
H926	H	0.844021	0.332935	0.557840
H927	H	0.927447	0.332888	0.390867
H928	H	0.919567	0.166965	0.483094
H929	H	0.940880	0.216835	0.530878
H930	H	0.858323	0.117617	0.365009
H931	H	0.890051	0.285041	0.529520
H932	H	0.974107	0.049244	0.363295
H933	H	0.984457	0.285058	0.602920
H934	H	0.902080	0.047701	0.436266
H935	H	0.847910	0.214315	0.602203
H936	H	0.932126	0.119175	0.436350
H937	H	0.684298	0.047646	0.524104
H938	H	0.715113	0.009851	0.521157
H939	H	0.736213	0.035636	0.482559
H940	H	0.792758	0.264728	0.404519
H941	H	0.765318	0.278351	0.448710
H942	H	0.745195	0.267363	0.396856
H943	H	0.951641	0.110892	0.593967
H944	H	0.968768	0.176590	0.588250
H945	H	0.962759	0.155395	0.536438
H946	H	0.901811	0.221351	0.692553
H947	H	0.857364	0.193458	0.322003
H948	H	0.826189	0.178354	0.284582
H949	H	0.854177	0.041890	0.522536
H950	H	0.875784	-0.001078	0.505921
H951	H	0.900081	0.030917	0.477519
H952	H	0.848537	0.061930	0.574533
H953	H	0.870037	0.066344	0.625730
H954	H	0.882837	0.029721	0.591928
H955	H	0.772080	0.116308	0.552751
H956	H	0.797086	0.182870	0.576156
H957	H	0.798697	0.164290	0.522924
H958	H	0.865284	0.222238	0.421478
H959	H	0.888918	0.155612	0.426624
H960	H	0.877576	0.172064	0.707586
N153	N	0.769479	0.283751	0.568276
N154	N	0.686910	0.049619	0.402017
N155	N	0.728847	0.216770	0.568613
N156	N	0.812937	0.116976	0.402680
N157	N	0.936146	0.283751	0.568276
N158	N	0.853576	0.049619	0.402017
N159	N	0.895514	0.216770	0.568613
N160	N	0.979603	0.116976	0.402680
Ni77	Ni	0.749001	0.250495	0.612109
Ni78	Ni	0.833324	0.082666	0.446393
Ni79	Ni	0.915667	0.250495	0.612109
Ni80	Ni	0.999991	0.082666	0.446393
O305	O	0.707593	0.115896	0.460958
O306	O	0.790403	0.216992	0.627097
O307	O	0.792543	0.049169	0.459059
O308	O	0.708366	0.284117	0.625420
O309	O	0.824356	0.118720	0.494331
O310	O	0.740379	0.213805	0.659959
O311	O	0.676280	0.045053	0.493693
O312	O	0.758895	0.287586	0.659800
O313	O	0.874260	0.115896	0.460958
O314	O	0.957069	0.216992	0.627097
O315	O	0.959210	0.049169	0.459059
O316	O	0.875033	0.284117	0.625420
O317	O	0.991023	0.118720	0.494331
O318	O	0.907046	0.213805	0.659959
O319	O	0.842947	0.045053	0.493693
O320	O	0.925562	0.287586	0.659800
S153	S	0.702732	-0.017119	0.456291
S154	S	0.775441	0.323973	0.397710
S155	S	0.987003	0.115757	0.587826
S156	S	0.876221	0.140047	0.623931
S157	S	0.882233	-0.025291	0.440792
S158	S	0.824923	0.354730	0.625066
S159	S	0.803321	0.119816	0.575491
S160	S	0.901037	0.218452	0.417892
C1121	C	0.762737	0.323350	0.840661
C1122	C	0.679460	0.010369	0.674103
C1123	C	0.796878	0.003923	0.848831
C1124	C	0.713415	0.329248	0.682049
C1125	C	0.817305	0.323401	0.883457
C1126	C	0.734173	0.009451	0.716631
C1127	C	0.736060	0.176568	0.842128
C1128	C	0.819515	0.157136	0.675968
C1129	C	0.748379	0.204444	0.868812
C1130	C	0.832273	0.129559	0.702872
C1131	C	0.749825	0.296402	0.867734
C1132	C	0.667023	0.037411	0.701416
C1133	C	0.802659	0.296461	0.909184
C1134	C	0.719978	0.036516	0.742604
C1135	C	0.696287	0.202994	0.909117
C1136	C	0.780297	0.130544	0.743131
C1137	C	0.682308	0.175026	0.883771
C1138	C	0.765886	0.158237	0.717585
C1139	C	0.702721	0.161423	0.850039
C1140	C	0.785944	0.171885	0.683546
C1141	C	0.811103	0.033106	0.822207
C1142	C	0.727172	0.299907	0.988557
C1143	C	0.689126	0.131491	0.823559
C1144	C	0.772014	0.201391	0.989702
C1145	C	0.929404	0.323350	0.840661
C1146	C	0.846126	0.010369	0.674103
C1147	C	0.963545	0.003923	0.848831
C1148	C	0.880081	0.329248	0.682049
C1149	C	0.983972	0.323401	0.883457
C1150	C	0.900840	0.009451	0.716631
C1151	C	0.902727	0.176568	0.842128
C1152	C	0.986182	0.157136	0.675968
C1153	C	0.915046	0.204444	0.868812
C1154	C	0.998940	0.129559	0.702872
C1155	C	0.916492	0.296402	0.867734
C1156	C	0.833690	0.037411	0.701416
C1157	C	0.969326	0.296461	0.909184
C1158	C	0.886645	0.036516	0.742604
C1159	C	0.862954	0.202994	0.909117
C1160	C	0.946963	0.130544	0.743131
C1161	C	0.848975	0.175026	0.883771
C1162	C	0.932553	0.158237	0.717585
C1163	C	0.869388	0.161423	0.850039
C1164	C	0.952611	0.171885	0.683546
C1165	C	0.977770	0.033106	0.822207
C1166	C	0.893839	0.299907	0.988557
C1167	C	0.855792	0.131491	0.823559
C1168	C	0.938681	0.201391	0.989702
C1169	C	0.730770	0.008330	0.824636
C1170	C	0.768412	0.278761	0.746739
C1171	C	0.981347	0.159513	0.897380
C1172	C	0.843959	0.169020	0.977117
C1173	C	0.897986	0.002891	0.817133
C1174	C	0.860479	0.046765	0.935083
C1175	C	0.811303	0.164227	0.888521
C1176	C	0.898160	0.172156	0.733161
H961	H	0.677354	0.332935	0.891173
H962	H	0.752900	0.166965	0.816427
H963	H	0.669547	0.166799	0.983516
H964	H	0.774214	0.216835	0.864212
H965	H	0.691656	0.117617	0.698343
H966	H	0.723385	0.285041	0.862853
H967	H	0.807441	0.049244	0.696629
H968	H	0.817790	0.285058	0.936254
H969	H	0.735413	0.047701	0.769599
H970	H	0.681243	0.214315	0.935536
H971	H	0.765459	0.119175	0.769684
H972	H	0.739651	0.168400	0.725088
H973	H	0.995513	0.000897	0.981166
H974	H	0.844021	0.332935	0.891173
H975	H	0.927447	0.332888	0.724201
H976	H	0.919567	0.166965	0.816427
H977	H	0.940880	0.216835	0.864212
H978	H	0.858323	0.117617	0.698343
H979	H	0.890051	0.285041	0.862853
H980	H	0.974107	0.049244	0.696629
H981	H	0.984457	0.285058	0.936254
H982	H	0.902080	0.047701	0.769599
H983	H	0.847910	0.214315	0.935536
H984	H	0.932126	0.119175	0.769684
H985	H	0.684298	0.047646	0.857437
H986	H	0.715113	0.009851	0.854490
H987	H	0.736213	0.035636	0.815892
H988	H	0.792758	0.264728	0.737852
H989	H	0.765318	0.278351	0.782044
H990	H	0.745195	0.267363	0.730189
H991	H	0.951641	0.110892	0.927301
H992	H	0.968768	0.176590	0.921583
H993	H	0.962759	0.155395	0.869771
H994	H	0.901811	0.221351	1.025886
H995	H	0.857364	0.193458	0.655336
H996	H	0.826189	0.178354	0.617915
H997	H	0.854177	0.041890	0.855869
H998	H	0.875784	-0.001078	0.839255
H999	H	0.900081	0.030917	0.810852
H1000	H	0.848537	0.061930	0.907867
H1001	H	0.870037	0.066344	0.959064
H1002	H	0.882837	0.029721	0.925261
H1003	H	0.772080	0.116308	0.886085
H1004	H	0.797086	0.182870	0.909489
H1005	H	0.798697	0.164290	0.856257
H1006	H	0.865284	0.222238	0.754811
H1007	H	0.888918	0.155612	0.759957
H1008	H	0.877576	0.172064	1.040920
N161	N	0.769479	0.283751	0.901609
N162	N	0.686910	0.049619	0.735351
N163	N	0.728847	0.216770	0.901946
N164	N	0.812937	0.116976	0.736014
N165	N	0.936146	0.283751	0.901609
N166	N	0.853576	0.049619	0.735351
N167	N	0.895514	0.216770	0.901946
N168	N	0.979603	0.116976	0.736014
Ni81	Ni	0.749001	0.250495	0.945442
Ni82	Ni	0.833324	0.082666	0.779726
Ni83	Ni	0.915667	0.250495	0.945442
Ni84	Ni	0.999991	0.082666	0.779726
O321	O	0.707593	0.115896	0.794291
O322	O	0.790403	0.216992	0.960431
O323	O	0.792543	0.049169	0.792393
O324	O	0.708366	0.284117	0.958754
O325	O	0.824356	0.118720	0.827665
O326	O	0.740379	0.213805	0.993292
O327	O	0.676280	0.045053	0.827026
O328	O	0.758895	0.287586	0.993133
O329	O	0.874260	0.115896	0.794291
O330	O	0.957069	0.216992	0.960431
O331	O	0.959210	0.049169	0.792393
O332	O	0.875033	0.284117	0.958754
O333	O	0.991023	0.118720	0.827665
O334	O	0.907046	0.213805	0.993292
O335	O	0.842947	0.045053	0.827026
O336	O	0.925562	0.287586	0.993133
S161	S	0.702732	-0.017119	0.789625
S162	S	0.775441	0.323973	0.731044
S163	S	0.987003	0.115757	0.921160
S164	S	0.876221	0.140047	0.957264
S165	S	0.882233	-0.025291	0.774125
S166	S	0.824923	0.354730	0.958399
S167	S	0.803321	0.119816	0.908824
S168	S	0.901037	0.218452	0.751226
C1177	C	0.762737	0.656683	0.173995
C1178	C	0.679460	0.343702	0.007436
C1179	C	0.796878	0.337257	0.182164
C1180	C	0.713415	0.662581	0.015382
C1181	C	0.817305	0.656734	0.216790
C1182	C	0.734173	0.342784	0.049964
C1183	C	0.736060	0.509901	0.175461
C1184	C	0.819515	0.490470	0.009301
C1185	C	0.748379	0.537777	0.202145
C1186	C	0.832273	0.462892	0.036206
C1187	C	0.749825	0.629735	0.201068
C1188	C	0.667023	0.370744	0.034749
C1189	C	0.802659	0.629794	0.242517
C1190	C	0.719978	0.369849	0.075937
C1191	C	0.696287	0.536328	0.242451
C1192	C	0.780297	0.463878	0.076465
C1193	C	0.682308	0.508360	0.217104
C1194	C	0.765886	0.491570	0.050918
C1195	C	0.702721	0.494757	0.183372
C1196	C	0.785944	0.505219	0.016879
C1197	C	0.811103	0.366440	0.155540
C1198	C	0.727172	0.633240	0.321891
C1199	C	0.689126	0.464825	0.156892
C1200	C	0.772014	0.534724	0.323036
C1201	C	0.929404	0.656683	0.173995
C1202	C	0.846126	0.343702	0.007436
C1203	C	0.963545	0.337257	0.182164
C1204	C	0.880081	0.662581	0.015382
C1205	C	0.983972	0.656734	0.216790
C1206	C	0.900840	0.342784	0.049964
C1207	C	0.902727	0.509901	0.175461
C1208	C	0.986182	0.490470	0.009301
C1209	C	0.915046	0.537777	0.202145
C1210	C	0.998940	0.462892	0.036206
C1211	C	0.916492	0.629735	0.201068
C1212	C	0.833690	0.370744	0.034749
C1213	C	0.969326	0.629794	0.242517
C1214	C	0.886645	0.369849	0.075937
C1215	C	0.862954	0.536328	0.242451
C1216	C	0.946963	0.463878	0.076465
C1217	C	0.848975	0.508360	0.217104
C1218	C	0.932553	0.491570	0.050918
C1219	C	0.869388	0.494757	0.183372
C1220	C	0.952611	0.505219	0.016879
C1221	C	0.977770	0.366440	0.155540
C1222	C	0.893839	0.633240	0.321891
C1223	C	0.855792	0.464825	0.156892
C1224	C	0.938681	0.534724	0.323036
C1225	C	0.730770	0.341663	0.157970
C1226	C	0.768412	0.612094	0.080072
C1227	C	0.981347	0.492846	0.230713
C1228	C	0.843959	0.502353	0.310451
C1229	C	0.897986	0.336225	0.150467
C1230	C	0.860479	0.380099	0.268417
C1231	C	0.811303	0.497560	0.221854
C1232	C	0.898160	0.505490	0.066494
H1009	H	0.677354	0.666268	0.224507
H1010	H	0.752900	0.500298	0.149761
H1011	H	0.669547	0.500132	0.316849
H1012	H	0.774214	0.550169	0.197545
H1013	H	0.691656	0.450950	0.031676
H1014	H	0.723385	0.618374	0.196187
H1015	H	0.807441	0.382577	0.029962
H1016	H	0.817790	0.618391	0.269587
H1017	H	0.735413	0.381034	0.102932
H1018	H	0.681243	0.547648	0.268869
H1019	H	0.765459	0.452509	0.103017
H1020	H	0.739651	0.501734	0.058421
H1021	H	0.995513	0.334231	0.314500
H1022	H	0.844021	0.666268	0.224507
H1023	H	0.927447	0.666222	0.057534
H1024	H	0.919567	0.500298	0.149761
H1025	H	0.940880	0.550169	0.197545
H1026	H	0.858323	0.450950	0.031676
H1027	H	0.890051	0.618374	0.196187
H1028	H	0.974107	0.382577	0.029962
H1029	H	0.984457	0.618391	0.269587
H1030	H	0.902080	0.381034	0.102932
H1031	H	0.847910	0.547648	0.268869
H1032	H	0.932126	0.452509	0.103017
H1033	H	0.684298	0.380979	0.190771
H1034	H	0.715113	0.343184	0.187824
H1035	H	0.736213	0.368969	0.149225
H1036	H	0.792758	0.598061	0.071185
H1037	H	0.765318	0.611684	0.115377
H1038	H	0.745195	0.600697	0.063522
H1039	H	0.951641	0.444225	0.260634
H1040	H	0.968768	0.509923	0.254917
H1041	H	0.962759	0.488729	0.203105
H1042	H	0.901811	0.554685	0.359219
H1043	H	0.857364	0.526791	-0.011330
H1044	H	0.826189	0.511688	-0.048752
H1045	H	0.854177	0.375224	0.189202
H1046	H	0.875784	0.332256	0.172588
H1047	H	0.900081	0.364250	0.144185
H1048	H	0.848537	0.395263	0.241200
H1049	H	0.870037	0.399678	0.292397
H1050	H	0.882837	0.363055	0.258594
H1051	H	0.772080	0.449641	0.219418
H1052	H	0.797086	0.516203	0.242823
H1053	H	0.798697	0.497623	0.189591
H1054	H	0.865284	0.555572	0.088144
H1055	H	0.888918	0.488945	0.093291
H1056	H	0.877576	0.505397	0.374253
N169	N	0.769479	0.617084	0.234943
N170	N	0.686910	0.382952	0.068684
N171	N	0.728847	0.550103	0.235279
N172	N	0.812937	0.450309	0.069347
N173	N	0.936146	0.617084	0.234943
N174	N	0.853576	0.382952	0.068684
N175	N	0.895514	0.550103	0.235279
N176	N	0.979603	0.450309	0.069347
Ni85	Ni	0.749001	0.583829	0.278775
Ni86	Ni	0.833324	0.416000	0.113059
Ni87	Ni	0.915667	0.583829	0.278775
Ni88	Ni	0.999991	0.416000	0.113059
O337	O	0.707593	0.449230	0.127624
O338	O	0.790403	0.550326	0.293764
O339	O	0.792543	0.382502	0.125726
O340	O	0.708366	0.617451	0.292087
O341	O	0.824356	0.452053	0.160998
O342	O	0.740379	0.547138	0.326626
O343	O	0.676280	0.378386	0.160359
O344	O	0.758895	0.620919	0.326466
O345	O	0.874260	0.449230	0.127624
O346	O	0.957069	0.550326	0.293764
O347	O	0.959210	0.382502	0.125726
O348	O	0.875033	0.617451	0.292087
O349	O	0.991023	0.452053	0.160998
O350	O	0.907046	0.547138	0.326626
O351	O	0.842947	0.378386	0.160359
O352	O	0.925562	0.620919	0.326466
S169	S	0.702732	0.316214	0.122958
S170	S	0.775441	0.657306	0.064377
S171	S	0.987003	0.449090	0.254493
S172	S	0.876221	0.473380	0.290597
S173	S	0.882233	0.308042	0.107458
S174	S	0.824923	0.688064	0.291733
S175	S	0.803321	0.453149	0.242158
S176	S	0.901037	0.551786	0.084559
C1233	C	0.762737	0.656683	0.507328
C1234	C	0.679460	0.343702	0.340769
C1235	C	0.796878	0.337257	0.515497
C1236	C	0.713415	0.662581	0.348715
C1237	C	0.817305	0.656734	0.550124
C1238	C	0.734173	0.342784	0.383298
C1239	C	0.736060	0.509901	0.508795
C1240	C	0.819515	0.490470	0.342635
C1241	C	0.748379	0.537777	0.535478
C1242	C	0.832273	0.462892	0.369539
C1243	C	0.749825	0.629735	0.534401
C1244	C	0.667023	0.370744	0.368082
C1245	C	0.802659	0.629794	0.575851
C1246	C	0.719978	0.369849	0.409271
C1247	C	0.696287	0.536328	0.575784
C1248	C	0.780297	0.463878	0.409798
C1249	C	0.682308	0.508360	0.550437
C1250	C	0.765886	0.491570	0.384251
C1251	C	0.702721	0.494757	0.516705
C1252	C	0.785944	0.505219	0.350213
C1253	C	0.811103	0.366440	0.488874
C1254	C	0.727172	0.633240	0.655224
C1255	C	0.689126	0.464825	0.490225
C1256	C	0.772014	0.534724	0.656369
C1257	C	0.929404	0.656683	0.507328
C1258	C	0.846126	0.343702	0.340769
C1259	C	0.963545	0.337257	0.515497
C1260	C	0.880081	0.662581	0.348715
C1261	C	0.983972	0.656734	0.550124
C1262	C	0.900840	0.342784	0.383298
C1263	C	0.902727	0.509901	0.508795
C1264	C	0.986182	0.490470	0.342635
C1265	C	0.915046	0.537777	0.535478
C1266	C	0.998940	0.462892	0.369539
C1267	C	0.916492	0.629735	0.534401
C1268	C	0.833690	0.370744	0.368082
C1269	C	0.969326	0.629794	0.575851
C1270	C	0.886645	0.369849	0.409271
C1271	C	0.862954	0.536328	0.575784
C1272	C	0.946963	0.463878	0.409798
C1273	C	0.848975	0.508360	0.550437
C1274	C	0.932553	0.491570	0.384251
C1275	C	0.869388	0.494757	0.516705
C1276	C	0.952611	0.505219	0.350213
C1277	C	0.977770	0.366440	0.488874
C1278	C	0.893839	0.633240	0.655224
C1279	C	0.855792	0.464825	0.490225
C1280	C	0.938681	0.534724	0.656369
C1281	C	0.730770	0.341663	0.491303
C1282	C	0.768412	0.612094	0.413406
C1283	C	0.981347	0.492846	0.564046
C1284	C	0.843959	0.502353	0.643784
C1285	C	0.897986	0.336225	0.483800
C1286	C	0.860479	0.380099	0.601750
C1287	C	0.811303	0.497560	0.555188
C1288	C	0.898160	0.505490	0.399827
H1057	H	0.677354	0.666268	0.557840
H1058	H	0.752900	0.500298	0.483094
H1059	H	0.669547	0.500132	0.650183
H1060	H	0.774214	0.550169	0.530878
H1061	H	0.691656	0.450950	0.365009
H1062	H	0.723385	0.618374	0.529520
H1063	H	0.807441	0.382577	0.363295
H1064	H	0.817790	0.618391	0.602920
H1065	H	0.735413	0.381034	0.436266
H1066	H	0.681243	0.547648	0.602203
H1067	H	0.765459	0.452509	0.436350
H1068	H	0.739651	0.501734	0.391755
H1069	H	0.995513	0.334231	0.647833
H1070	H	0.844021	0.666268	0.557840
H1071	H	0.927447	0.666222	0.390867
H1072	H	0.919567	0.500298	0.483094
H1073	H	0.940880	0.550169	0.530878
H1074	H	0.858323	0.450950	0.365009
H1075	H	0.890051	0.618374	0.529520
H1076	H	0.974107	0.382577	0.363295
H1077	H	0.984457	0.618391	0.602920
H1078	H	0.902080	0.381034	0.436266
H1079	H	0.847910	0.547648	0.602203
H1080	H	0.932126	0.452509	0.436350
H1081	H	0.684298	0.380979	0.524104
H1082	H	0.715113	0.343184	0.521157
H1083	H	0.736213	0.368969	0.482559
H1084	H	0.792758	0.598061	0.404519
H1085	H	0.765318	0.611684	0.448710
H1086	H	0.745195	0.600697	0.396856
H1087	H	0.951641	0.444225	0.593967
H1088	H	0.968768	0.509923	0.588250
H1089	H	0.962759	0.488729	0.536438
H1090	H	0.901811	0.554685	0.692553
H1091	H	0.857364	0.526791	0.322003
H1092	H	0.826189	0.511688	0.284582
H1093	H	0.854177	0.375224	0.522536
H1094	H	0.875784	0.332256	0.505921
H1095	H	0.900081	0.364250	0.477519
H1096	H	0.848537	0.395263	0.574533
H1097	H	0.870037	0.399678	0.625730
H1098	H	0.882837	0.363055	0.591928
H1099	H	0.772080	0.449641	0.552751
H1100	H	0.797086	0.516203	0.576156
H1101	H	0.798697	0.497623	0.522924
H1102	H	0.865284	0.555572	0.421478
H1103	H	0.888918	0.488945	0.426624
H1104	H	0.877576	0.505397	0.707586
N177	N	0.769479	0.617084	0.568276
N178	N	0.686910	0.382952	0.402017
N179	N	0.728847	0.550103	0.568613
N180	N	0.812937	0.450309	0.402680
N181	N	0.936146	0.617084	0.568276
N182	N	0.853576	0.382952	0.402017
N183	N	0.895514	0.550103	0.568613
N184	N	0.979603	0.450309	0.402680
Ni89	Ni	0.749001	0.583829	0.612109
Ni90	Ni	0.833324	0.416000	0.446393
Ni91	Ni	0.915667	0.583829	0.612109
Ni92	Ni	0.999991	0.416000	0.446393
O353	O	0.707593	0.449230	0.460958
O354	O	0.790403	0.550326	0.627097
O355	O	0.792543	0.382502	0.459059
O356	O	0.708366	0.617451	0.625420
O357	O	0.824356	0.452053	0.494331
O358	O	0.740379	0.547138	0.659959
O359	O	0.676280	0.378386	0.493693
O360	O	0.758895	0.620919	0.659800
O361	O	0.874260	0.449230	0.460958
O362	O	0.957069	0.550326	0.627097
O363	O	0.959210	0.382502	0.459059
O364	O	0.875033	0.617451	0.625420
O365	O	0.991023	0.452053	0.494331
O366	O	0.907046	0.547138	0.659959
O367	O	0.842947	0.378386	0.493693
O368	O	0.925562	0.620919	0.659800
S177	S	0.702732	0.316214	0.456291
S178	S	0.775441	0.657306	0.397710
S179	S	0.987003	0.449090	0.587826
S180	S	0.876221	0.473380	0.623931
S181	S	0.882233	0.308042	0.440792
S182	S	0.824923	0.688064	0.625066
S183	S	0.803321	0.453149	0.575491
S184	S	0.901037	0.551786	0.417892
C1289	C	0.762737	0.656683	0.840661
C1290	C	0.679460	0.343702	0.674103
C1291	C	0.796878	0.337257	0.848831
C1292	C	0.713415	0.662581	0.682049
C1293	C	0.817305	0.656734	0.883457
C1294	C	0.734173	0.342784	0.716631
C1295	C	0.736060	0.509901	0.842128
C1296	C	0.819515	0.490470	0.675968
C1297	C	0.748379	0.537777	0.868812
C1298	C	0.832273	0.462892	0.702872
C1299	C	0.749825	0.629735	0.867734
C1300	C	0.667023	0.370744	0.701416
C1301	C	0.802659	0.629794	0.909184
C1302	C	0.719978	0.369849	0.742604
C1303	C	0.696287	0.536328	0.909117
C1304	C	0.780297	0.463878	0.743131
C1305	C	0.682308	0.508360	0.883771
C1306	C	0.765886	0.491570	0.717585
C1307	C	0.702721	0.494757	0.850039
C1308	C	0.785944	0.505219	0.683546
C1309	C	0.811103	0.366440	0.822207
C1310	C	0.727172	0.633240	0.988557
C1311	C	0.689126	0.464825	0.823559
C1312	C	0.772014	0.534724	0.989702
C1313	C	0.929404	0.656683	0.840661
C1314	C	0.846126	0.343702	0.674103
C1315	C	0.963545	0.337257	0.848831
C1316	C	0.880081	0.662581	0.682049
C1317	C	0.983972	0.656734	0.883457
C1318	C	0.900840	0.342784	0.716631
C1319	C	0.902727	0.509901	0.842128
C1320	C	0.986182	0.490470	0.675968
C1321	C	0.915046	0.537777	0.868812
C1322	C	0.998940	0.462892	0.702872
C1323	C	0.916492	0.629735	0.867734
C1324	C	0.833690	0.370744	0.701416
C1325	C	0.969326	0.629794	0.909184
C1326	C	0.886645	0.369849	0.742604
C1327	C	0.862954	0.536328	0.909117
C1328	C	0.946963	0.463878	0.743131
C1329	C	0.848975	0.508360	0.883771
C1330	C	0.932553	0.491570	0.717585
C1331	C	0.869388	0.494757	0.850039
C1332	C	0.952611	0.505219	0.683546
C1333	C	0.977770	0.366440	0.822207
C1334	C	0.893839	0.633240	0.988557
C1335	C	0.855792	0.464825	0.823559
C1336	C	0.938681	0.534724	0.989702
C1337	C	0.730770	0.341663	0.824636
C1338	C	0.768412	0.612094	0.746739
C1339	C	0.981347	0.492846	0.897380
C1340	C	0.843959	0.502353	0.977117
C1341	C	0.897986	0.336225	0.817133
C1342	C	0.860479	0.380099	0.935083
C1343	C	0.811303	0.497560	0.888521
C1344	C	0.898160	0.505490	0.733161
H1105	H	0.677354	0.666268	0.891173
H1106	H	0.752900	0.500298	0.816427
H1107	H	0.669547	0.500132	0.983516
H1108	H	0.774214	0.550169	0.864212
H1109	H	0.691656	0.450950	0.698343
H1110	H	0.723385	0.618374	0.862853
H1111	H	0.807441	0.382577	0.696629
H1112	H	0.817790	0.618391	0.936254
H1113	H	0.735413	0.381034	0.769599
H1114	H	0.681243	0.547648	0.935536
H1115	H	0.765459	0.452509	0.769684
H1116	H	0.739651	0.501734	0.725088
H1117	H	0.995513	0.334231	0.981166
H1118	H	0.844021	0.666268	0.891173
H1119	H	0.927447	0.666222	0.724201
H1120	H	0.919567	0.500298	0.816427
H1121	H	0.940880	0.550169	0.864212
H1122	H	0.858323	0.450950	0.698343
H1123	H	0.890051	0.618374	0.862853
H1124	H	0.974107	0.382577	0.696629
H1125	H	0.984457	0.618391	0.936254
H1126	H	0.902080	0.381034	0.769599
H1127	H	0.847910	0.547648	0.935536
H1128	H	0.932126	0.452509	0.769684
H1129	H	0.684298	0.380979	0.857437
H1130	H	0.715113	0.343184	0.854490
H1131	H	0.736213	0.368969	0.815892
H1132	H	0.792758	0.598061	0.737852
H1133	H	0.765318	0.611684	0.782044
H1134	H	0.745195	0.600697	0.730189
H1135	H	0.951641	0.444225	0.927301
H1136	H	0.968768	0.509923	0.921583
H1137	H	0.962759	0.488729	0.869771
H1138	H	0.901811	0.554685	1.025886
H1139	H	0.857364	0.526791	0.655336
H1140	H	0.826189	0.511688	0.617915
H1141	H	0.854177	0.375224	0.855869
H1142	H	0.875784	0.332256	0.839255
H1143	H	0.900081	0.364250	0.810852
H1144	H	0.848537	0.395263	0.907867
H1145	H	0.870037	0.399678	0.959064
H1146	H	0.882837	0.363055	0.925261
H1147	H	0.772080	0.449641	0.886085
H1148	H	0.797086	0.516203	0.909489
H1149	H	0.798697	0.497623	0.856257
H1150	H	0.865284	0.555572	0.754811
H1151	H	0.888918	0.488945	0.759957
H1152	H	0.877576	0.505397	1.040920
N185	N	0.769479	0.617084	0.901609
N186	N	0.686910	0.382952	0.735351
N187	N	0.728847	0.550103	0.901946
N188	N	0.812937	0.450309	0.736014
N189	N	0.936146	0.617084	0.901609
N190	N	0.853576	0.382952	0.735351
N191	N	0.895514	0.550103	0.901946
N192	N	0.979603	0.450309	0.736014
Ni93	Ni	0.749001	0.583829	0.945442
Ni94	Ni	0.833324	0.416000	0.779726
Ni95	Ni	0.915667	0.583829	0.945442
Ni96	Ni	0.999991	0.416000	0.779726
O369	O	0.707593	0.449230	0.794291
O370	O	0.790403	0.550326	0.960431
O371	O	0.792543	0.382502	0.792393
O372	O	0.708366	0.617451	0.958754
O373	O	0.824356	0.452053	0.827665
O374	O	0.740379	0.547138	0.993292
O375	O	0.676280	0.378386	0.827026
O376	O	0.758895	0.620919	0.993133
O377	O	0.874260	0.449230	0.794291
O378	O	0.957069	0.550326	0.960431
O379	O	0.959210	0.382502	0.792393
O380	O	0.875033	0.617451	0.958754
O381	O	0.991023	0.452053	0.827665
O382	O	0.907046	0.547138	0.993292
O383	O	0.842947	0.378386	0.827026
O384	O	0.925562	0.620919	0.993133
S185	S	0.702732	0.316214	0.789625
S186	S	0.775441	0.657306	0.731044
S187	S	0.987003	0.449090	0.921160
S188	S	0.876221	0.473380	0.957264
S189	S	0.882233	0.308042	0.774125
S190	S	0.824923	0.688064	0.958399
S191	S	0.803321	0.453149	0.908824
S192	S	0.901037	0.551786	0.751226
C1345	C	0.762737	0.990017	0.173995
C1346	C	0.679460	0.677035	0.007436
C1347	C	0.796878	0.670590	0.182164
C1348	C	0.713415	0.995915	0.015382
C1349	C	0.817305	0.990067	0.216790
C1350	C	0.734173	0.676118	0.049964
C1351	C	0.736060	0.843235	0.175461
C1352	C	0.819515	0.823803	0.009301
C1353	C	0.748379	0.871110	0.202145
C1354	C	0.832273	0.796226	0.036206
C1355	C	0.749825	0.963069	0.201068
C1356	C	0.667023	0.704077	0.034749
C1357	C	0.802659	0.963128	0.242517
C1358	C	0.719978	0.703182	0.075937
C1359	C	0.696287	0.869661	0.242451
C1360	C	0.780297	0.797211	0.076465
C1361	C	0.682308	0.841693	0.217104
C1362	C	0.765886	0.824904	0.050918
C1363	C	0.702721	0.828090	0.183372
C1364	C	0.785944	0.838552	0.016879
C1365	C	0.811103	0.699773	0.155540
C1366	C	0.727172	0.966573	0.321891
C1367	C	0.689126	0.798158	0.156892
C1368	C	0.772014	0.868057	0.323036
C1369	C	0.929404	0.990017	0.173995
C1370	C	0.846126	0.677035	0.007436
C1371	C	0.963545	0.670590	0.182164
C1372	C	0.880081	0.995915	0.015382
C1373	C	0.983972	0.990067	0.216790
C1374	C	0.900840	0.676118	0.049964
C1375	C	0.902727	0.843235	0.175461
C1376	C	0.986182	0.823803	0.009301
C1377	C	0.915046	0.871110	0.202145
C1378	C	0.998940	0.796226	0.036206
C1379	C	0.916492	0.963069	0.201068
C1380	C	0.833690	0.704077	0.034749
C1381	C	0.969326	0.963128	0.242517
C1382	C	0.886645	0.703182	0.075937
C1383	C	0.862954	0.869661	0.242451
C1384	C	0.946963	0.797211	0.076465
C1385	C	0.848975	0.841693	0.217104
C1386	C	0.932553	0.824904	0.050918
C1387	C	0.869388	0.828090	0.183372
C1388	C	0.952611	0.838552	0.016879
C1389	C	0.977770	0.699773	0.155540
C1390	C	0.893839	0.966573	0.321891
C1391	C	0.855792	0.798158	0.156892
C1392	C	0.938681	0.868057	0.323036
C1393	C	0.730770	0.674996	0.157970
C1394	C	0.768412	0.945428	0.080072
C1395	C	0.981347	0.826179	0.230713
C1396	C	0.843959	0.835687	0.310451
C1397	C	0.897986	0.669558	0.150467
C1398	C	0.860479	0.713432	0.268417
C1399	C	0.811303	0.830893	0.221854
C1400	C	0.898160	0.838823	0.066494
H1153	H	0.677354	0.999602	0.224507
H1154	H	0.752900	0.833632	0.149761
H1155	H	0.669547	0.833466	0.316849
H1156	H	0.774214	0.883502	0.197545
H1157	H	0.691656	0.784284	0.031676
H1158	H	0.723385	0.951708	0.196187
H1159	H	0.807441	0.715911	0.029962
H1160	H	0.817790	0.951724	0.269587
H1161	H	0.735413	0.714368	0.102932
H1162	H	0.681243	0.880981	0.268869
H1163	H	0.765459	0.785842	0.103017
H1164	H	0.739651	0.835067	0.058421
H1165	H	0.995513	0.667564	0.314500
H1166	H	0.844021	0.999602	0.224507
H1167	H	0.927447	0.999555	0.057534
H1168	H	0.919567	0.833632	0.149761
H1169	H	0.940880	0.883502	0.197545
H1170	H	0.858323	0.784284	0.031676
H1171	H	0.890051	0.951708	0.196187
H1172	H	0.974107	0.715911	0.029962
H1173	H	0.984457	0.951724	0.269587
H1174	H	0.902080	0.714368	0.102932
H1175	H	0.847910	0.880981	0.268869
H1176	H	0.932126	0.785842	0.103017
H1177	H	0.684298	0.714312	0.190771
H1178	H	0.715113	0.676518	0.187824
H1179	H	0.736213	0.702303	0.149225
H1180	H	0.792758	0.931394	0.071185
H1181	H	0.765318	0.945017	0.115377
H1182	H	0.745195	0.934030	0.063522
H1183	H	0.951641	0.777559	0.260634
H1184	H	0.968768	0.843256	0.254917
H1185	H	0.962759	0.822062	0.203105
H1186	H	0.901811	0.888018	0.359219
H1187	H	0.857364	0.860125	-0.011330
H1188	H	0.826189	0.845021	-0.048752
H1189	H	0.854177	0.708557	0.189202
H1190	H	0.875784	0.665589	0.172588
H1191	H	0.900081	0.697583	0.144185
H1192	H	0.848537	0.728596	0.241200
H1193	H	0.870037	0.733011	0.292397
H1194	H	0.882837	0.696388	0.258594
H1195	H	0.772080	0.782975	0.219418
H1196	H	0.797086	0.849536	0.242823
H1197	H	0.798697	0.830957	0.189591
H1198	H	0.865284	0.888905	0.088144
H1199	H	0.888918	0.822278	0.093291
H1200	H	0.877576	0.838731	0.374253
N193	N	0.769479	0.950418	0.234943
N194	N	0.686910	0.716286	0.068684
N195	N	0.728847	0.883437	0.235279
N196	N	0.812937	0.783643	0.069347
N197	N	0.936146	0.950418	0.234943
N198	N	0.853576	0.716286	0.068684
N199	N	0.895514	0.883437	0.235279
N200	N	0.979603	0.783643	0.069347
Ni97	Ni	0.749001	0.917162	0.278775
Ni98	Ni	0.833324	0.749333	0.113059
Ni99	Ni	0.915667	0.917162	0.278775
Ni100	Ni	0.999991	0.749333	0.113059
O385	O	0.707593	0.782563	0.127624
O386	O	0.790403	0.883659	0.293764
O387	O	0.792543	0.715836	0.125726
O388	O	0.708366	0.950784	0.292087
O389	O	0.824356	0.785387	0.160998
O390	O	0.740379	0.880472	0.326626
O391	O	0.676280	0.711719	0.160359
O392	O	0.758895	0.954253	0.326466
O393	O	0.874260	0.782563	0.127624
O394	O	0.957069	0.883659	0.293764
O395	O	0.959210	0.715836	0.125726
O396	O	0.875033	0.950784	0.292087
O397	O	0.991023	0.785387	0.160998
O398	O	0.907046	0.880472	0.326626
O399	O	0.842947	0.711719	0.160359
O400	O	0.925562	0.954253	0.326466
S193	S	0.702732	0.649548	0.122958
S194	S	0.775441	0.990639	0.064377
S195	S	0.987003	0.782424	0.254493
S196	S	0.876221	0.806713	0.290597
S197	S	0.882233	0.641375	0.107458
S198	S	0.824923	1.021397	0.291733
S199	S	0.803321	0.786482	0.242158
S200	S	0.901037	0.885119	0.084559
C1401	C	0.762737	0.990017	0.507328
C1402	C	0.679460	0.677035	0.340769
C1403	C	0.796878	0.670590	0.515497
C1404	C	0.713415	0.995915	0.348715
C1405	C	0.817305	0.990067	0.550124
C1406	C	0.734173	0.676118	0.383298
C1407	C	0.736060	0.843235	0.508795
C1408	C	0.819515	0.823803	0.342635
C1409	C	0.748379	0.871110	0.535478
C1410	C	0.832273	0.796226	0.369539
C1411	C	0.749825	0.963069	0.534401
C1412	C	0.667023	0.704077	0.368082
C1413	C	0.802659	0.963128	0.575851
C1414	C	0.719978	0.703182	0.409271
C1415	C	0.696287	0.869661	0.575784
C1416	C	0.780297	0.797211	0.409798
C1417	C	0.682308	0.841693	0.550437
C1418	C	0.765886	0.824904	0.384251
C1419	C	0.702721	0.828090	0.516705
C1420	C	0.785944	0.838552	0.350213
C1421	C	0.811103	0.699773	0.488874
C1422	C	0.727172	0.966573	0.655224
C1423	C	0.689126	0.798158	0.490225
C1424	C	0.772014	0.868057	0.656369
C1425	C	0.929404	0.990017	0.507328
C1426	C	0.846126	0.677035	0.340769
C1427	C	0.963545	0.670590	0.515497
C1428	C	0.880081	0.995915	0.348715
C1429	C	0.983972	0.990067	0.550124
C1430	C	0.900840	0.676118	0.383298
C1431	C	0.902727	0.843235	0.508795
C1432	C	0.986182	0.823803	0.342635
C1433	C	0.915046	0.871110	0.535478
C1434	C	0.998940	0.796226	0.369539
C1435	C	0.916492	0.963069	0.534401
C1436	C	0.833690	0.704077	0.368082
C1437	C	0.969326	0.963128	0.575851
C1438	C	0.886645	0.703182	0.409271
C1439	C	0.862954	0.869661	0.575784
C1440	C	0.946963	0.797211	0.409798
C1441	C	0.848975	0.841693	0.550437
C1442	C	0.932553	0.824904	0.384251
C1443	C	0.869388	0.828090	0.516705
C1444	C	0.952611	0.838552	0.350213
C1445	C	0.977770	0.699773	0.488874
C1446	C	0.893839	0.966573	0.655224
C1447	C	0.855792	0.798158	0.490225
C1448	C	0.938681	0.868057	0.656369
C1449	C	0.730770	0.674996	0.491303
C1450	C	0.768412	0.945428	0.413406
C1451	C	0.981347	0.826179	0.564046
C1452	C	0.843959	0.835687	0.643784
C1453	C	0.897986	0.669558	0.483800
C1454	C	0.860479	0.713432	0.601750
C1455	C	0.811303	0.830893	0.555188
C1456	C	0.898160	0.838823	0.399827
H1201	H	0.677354	0.999602	0.557840
H1202	H	0.752900	0.833632	0.483094
H1203	H	0.669547	0.833466	0.650183
H1204	H	0.774214	0.883502	0.530878
H1205	H	0.691656	0.784284	0.365009
H1206	H	0.723385	0.951708	0.529520
H1207	H	0.807441	0.715911	0.363295
H1208	H	0.817790	0.951724	0.602920
H1209	H	0.735413	0.714368	0.436266
H1210	H	0.681243	0.880981	0.602203
H1211	H	0.765459	0.785842	0.436350
H1212	H	0.739651	0.835067	0.391755
H1213	H	0.995513	0.667564	0.647833
H1214	H	0.844021	0.999602	0.557840
H1215	H	0.927447	0.999555	0.390867
H1216	H	0.919567	0.833632	0.483094
H1217	H	0.940880	0.883502	0.530878
H1218	H	0.858323	0.784284	0.365009
H1219	H	0.890051	0.951708	0.529520
H1220	H	0.974107	0.715911	0.363295
H1221	H	0.984457	0.951724	0.602920
H1222	H	0.902080	0.714368	0.436266
H1223	H	0.847910	0.880981	0.602203
H1224	H	0.932126	0.785842	0.436350
H1225	H	0.684298	0.714312	0.524104
H1226	H	0.715113	0.676518	0.521157
H1227	H	0.736213	0.702303	0.482559
H1228	H	0.792758	0.931394	0.404519
H1229	H	0.765318	0.945017	0.448710
H1230	H	0.745195	0.934030	0.396856
H1231	H	0.951641	0.777559	0.593967
H1232	H	0.968768	0.843256	0.588250
H1233	H	0.962759	0.822062	0.536438
H1234	H	0.901811	0.888018	0.692553
H1235	H	0.857364	0.860125	0.322003
H1236	H	0.826189	0.845021	0.284582
H1237	H	0.854177	0.708557	0.522536
H1238	H	0.875784	0.665589	0.505921
H1239	H	0.900081	0.697583	0.477519
H1240	H	0.848537	0.728596	0.574533
H1241	H	0.870037	0.733011	0.625730
H1242	H	0.882837	0.696388	0.591928
H1243	H	0.772080	0.782975	0.552751
H1244	H	0.797086	0.849536	0.576156
H1245	H	0.798697	0.830957	0.522924
H1246	H	0.865284	0.888905	0.421478
H1247	H	0.888918	0.822278	0.426624
H1248	H	0.877576	0.838731	0.707586
N201	N	0.769479	0.950418	0.568276
N202	N	0.686910	0.716286	0.402017
N203	N	0.728847	0.883437	0.568613
N204	N	0.812937	0.783643	0.402680
N205	N	0.936146	0.950418	0.568276
N206	N	0.853576	0.716286	0.402017
N207	N	0.895514	0.883437	0.568613
N208	N	0.979603	0.783643	0.402680
Ni101	Ni	0.749001	0.917162	0.612109
Ni102	Ni	0.833324	0.749333	0.446393
Ni103	Ni	0.915667	0.917162	0.612109
Ni104	Ni	0.999991	0.749333	0.446393
O401	O	0.707593	0.782563	0.460958
O402	O	0.790403	0.883659	0.627097
O403	O	0.792543	0.715836	0.459059
O404	O	0.708366	0.950784	0.625420
O405	O	0.824356	0.785387	0.494331
O406	O	0.740379	0.880472	0.659959
O407	O	0.676280	0.711719	0.493693
O408	O	0.758895	0.954253	0.659800
O409	O	0.874260	0.782563	0.460958
O410	O	0.957069	0.883659	0.627097
O411	O	0.959210	0.715836	0.459059
O412	O	0.875033	0.950784	0.625420
O413	O	0.991023	0.785387	0.494331
O414	O	0.907046	0.880472	0.659959
O415	O	0.842947	0.711719	0.493693
O416	O	0.925562	0.954253	0.659800
S201	S	0.702732	0.649548	0.456291
S202	S	0.775441	0.990639	0.397710
S203	S	0.987003	0.782424	0.587826
S204	S	0.876221	0.806713	0.623931
S205	S	0.882233	0.641375	0.440792
S206	S	0.824923	1.021397	0.625066
S207	S	0.803321	0.786482	0.575491
S208	S	0.901037	0.885119	0.417892
C1457	C	0.762737	0.990017	0.840661
C1458	C	0.679460	0.677035	0.674103
C1459	C	0.796878	0.670590	0.848831
C1460	C	0.713415	0.995915	0.682049
C1461	C	0.817305	0.990067	0.883457
C1462	C	0.734173	0.676118	0.716631
C1463	C	0.736060	0.843235	0.842128
C1464	C	0.819515	0.823803	0.675968
C1465	C	0.748379	0.871110	0.868812
C1466	C	0.832273	0.796226	0.702872
C1467	C	0.749825	0.963069	0.867734
C1468	C	0.667023	0.704077	0.701416
C1469	C	0.802659	0.963128	0.909184
C1470	C	0.719978	0.703182	0.742604
C1471	C	0.696287	0.869661	0.909117
C1472	C	0.780297	0.797211	0.743131
C1473	C	0.682308	0.841693	0.883771
C1474	C	0.765886	0.824904	0.717585
C1475	C	0.702721	0.828090	0.850039
C1476	C	0.785944	0.838552	0.683546
C1477	C	0.811103	0.699773	0.822207
C1478	C	0.727172	0.966573	0.988557
C1479	C	0.689126	0.798158	0.823559
C1480	C	0.772014	0.868057	0.989702
C1481	C	0.929404	0.990017	0.840661
C1482	C	0.846126	0.677035	0.674103
C1483	C	0.963545	0.670590	0.848831
C1484	C	0.880081	0.995915	0.682049
C1485	C	0.983972	0.990067	0.883457
C1486	C	0.900840	0.676118	0.716631
C1487	C	0.902727	0.843235	0.842128
C1488	C	0.986182	0.823803	0.675968
C1489	C	0.915046	0.871110	0.868812
C1490	C	0.998940	0.796226	0.702872
C1491	C	0.916492	0.963069	0.867734
C1492	C	0.833690	0.704077	0.701416
C1493	C	0.969326	0.963128	0.909184
C1494	C	0.886645	0.703182	0.742604
C1495	C	0.862954	0.869661	0.909117
C1496	C	0.946963	0.797211	0.743131
C1497	C	0.848975	0.841693	0.883771
C1498	C	0.932553	0.824904	0.717585
C1499	C	0.869388	0.828090	0.850039
C1500	C	0.952611	0.838552	0.683546
C1501	C	0.977770	0.699773	0.822207
C1502	C	0.893839	0.966573	0.988557
C1503	C	0.855792	0.798158	0.823559
C1504	C	0.938681	0.868057	0.989702
C1505	C	0.730770	0.674996	0.824636
C1506	C	0.768412	0.945428	0.746739
C1507	C	0.981347	0.826179	0.897380
C1508	C	0.843959	0.835687	0.977117
C1509	C	0.897986	0.669558	0.817133
C1510	C	0.860479	0.713432	0.935083
C1511	C	0.811303	0.830893	0.888521
C1512	C	0.898160	0.838823	0.733161
H1249	H	0.677354	0.999602	0.891173
H1250	H	0.752900	0.833632	0.816427
H1251	H	0.669547	0.833466	0.983516
H1252	H	0.774214	0.883502	0.864212
H1253	H	0.691656	0.784284	0.698343
H1254	H	0.723385	0.951708	0.862853
H1255	H	0.807441	0.715911	0.696629
H1256	H	0.817790	0.951724	0.936254
H1257	H	0.735413	0.714368	0.769599
H1258	H	0.681243	0.880981	0.935536
H1259	H	0.765459	0.785842	0.769684
H1260	H	0.739651	0.835067	0.725088
H1261	H	0.995513	0.667564	0.981166
H1262	H	0.844021	0.999602	0.891173
H1263	H	0.927447	0.999555	0.724201
H1264	H	0.919567	0.833632	0.816427
H1265	H	0.940880	0.883502	0.864212
H1266	H	0.858323	0.784284	0.698343
H1267	H	0.890051	0.951708	0.862853
H1268	H	0.974107	0.715911	0.696629
H1269	H	0.984457	0.951724	0.936254
H1270	H	0.902080	0.714368	0.769599
H1271	H	0.847910	0.880981	0.935536
H1272	H	0.932126	0.785842	0.769684
H1273	H	0.684298	0.714312	0.857437
H1274	H	0.715113	0.676518	0.854490
H1275	H	0.736213	0.702303	0.815892
H1276	H	0.792758	0.931394	0.737852
H1277	H	0.765318	0.945017	0.782044
H1278	H	0.745195	0.934030	0.730189
H1279	H	0.951641	0.777559	0.927301
H1280	H	0.968768	0.843256	0.921583
H1281	H	0.962759	0.822062	0.869771
H1282	H	0.901811	0.888018	1.025886
H1283	H	0.857364	0.860125	0.655336
H1284	H	0.826189	0.845021	0.617915
H1285	H	0.854177	0.708557	0.855869
H1286	H	0.875784	0.665589	0.839255
H1287	H	0.900081	0.697583	0.810852
H1288	H	0.848537	0.728596	0.907867
H1289	H	0.870037	0.733011	0.959064
H1290	H	0.882837	0.696388	0.925261
H1291	H	0.772080	0.782975	0.886085
H1292	H	0.797086	0.849536	0.909489
H1293	H	0.798697	0.830957	0.856257
H1294	H	0.865284	0.888905	0.754811
H1295	H	0.888918	0.822278	0.759957
H1296	H	0.877576	0.838731	1.040920
N209	N	0.769479	0.950418	0.901609
N210	N	0.686910	0.716286	0.735351
N211	N	0.728847	0.883437	0.901946
N212	N	0.812937	0.783643	0.736014
N213	N	0.936146	0.950418	0.901609
N214	N	0.853576	0.716286	0.735351
N215	N	0.895514	0.883437	0.901946
N216	N	0.979603	0.783643	0.736014
Ni105	Ni	0.749001	0.917162	0.945442
Ni106	Ni	0.833324	0.749333	0.779726
Ni107	Ni	0.915667	0.917162	0.945442
Ni108	Ni	0.999991	0.749333	0.779726
O417	O	0.707593	0.782563	0.794291
O418	O	0.790403	0.883659	0.960431
O419	O	0.792543	0.715836	0.792393
O420	O	0.708366	0.950784	0.958754
O421	O	0.824356	0.785387	0.827665
O422	O	0.740379	0.880472	0.993292
O423	O	0.676280	0.711719	0.827026
O424	O	0.758895	0.954253	0.993133
O425	O	0.874260	0.782563	0.794291
O426	O	0.957069	0.883659	0.960431
O427	O	0.959210	0.715836	0.792393
O428	O	0.875033	0.950784	0.958754
O429	O	0.991023	0.785387	0.827665
O430	O	0.907046	0.880472	0.993292
O431	O	0.842947	0.711719	0.827026
O432	O	0.925562	0.954253	0.993133
S209	S	0.702732	0.649548	0.789625
S210	S	0.775441	0.990639	0.731044
S211	S	0.987003	0.782424	0.921160
S212	S	0.876221	0.806713	0.957264
S213	S	0.882233	0.641375	0.774125
S214	S	0.824923	1.021397	0.958399
S215	S	0.803321	0.786482	0.908824
S216	S	0.901037	0.885119	0.751226
