data_NiPyC2_relax_sc211_meta_functionalized_CH2-CH3_pbesol_relax_frozen_parent_atoms_Round2_PM
_symmetry_space_group_name_H-M	'P1'
_cell_length_a	12.505617
_cell_length_b	12.523412
_cell_length_c	10.276810
_cell_angle_alpha	90.000000
_cell_angle_beta	91.268973
_cell_angle_gamma	90.000000
_symmetry_Int_Tables_number 1

loop_
_symmetry_equiv_pos_as_xyz
'x,y,z'

loop_
_atom_site_label
_atom_site_type_symbol
_atom_site_fract_x
_atom_site_fract_y
_atom_site_fract_z
C1	C	0.287521	0.978345	0.531072
C2	C	0.034768	0.033769	0.036198
C3	C	0.388628	0.021393	0.561788
C4	C	0.132408	0.978769	0.060470
C5	C	0.447443	0.974670	0.666393
C6	C	0.201540	0.019554	0.157549
C7	C	0.215832	0.542737	0.524191
C8	C	0.452329	0.443804	-0.002358
C9	C	0.241338	0.628369	0.608830
C10	C	0.486317	0.364901	0.088376
C11	C	0.246311	0.893750	0.603847
C12	C	0.013583	0.125709	0.110628
C13	C	0.403486	0.881344	0.724156
C14	C	0.172671	0.109876	0.229487
C15	C	0.094471	0.596530	0.739216
C16	C	0.326395	0.369143	0.198043
C17	C	0.066716	0.506497	0.665403
C18	C	0.286545	0.448491	0.113603
C19	C	0.126831	0.478873	0.556811
C20	C	0.352242	0.492823	0.019640
C21	C	0.432994	0.106041	0.480320
C22	C	0.168930	0.887081	0.982689
C23	C	0.086761	0.391776	0.474010
C24	C	0.314626	0.590942	0.953590
C25	C	0.789991	0.988179	0.521765
C26	C	0.527275	0.033067	0.051824
C27	C	0.894599	0.023830	0.548154
C28	C	0.629445	0.985547	0.069791
C29	C	0.952926	0.974284	0.651404
C30	C	0.699404	0.030815	0.162903
C31	C	0.717243	0.541494	0.545942
C32	C	0.959651	0.474259	0.013632
C33	C	0.741884	0.629265	0.627392
C34	C	0.999966	0.391596	0.092153
C35	C	0.745182	0.907596	0.597222
C36	C	0.500633	0.118876	0.133045
C37	C	0.905796	0.882672	0.709189
C38	C	0.666778	0.118045	0.237981
C39	C	0.566715	0.646891	0.691773
C40	C	0.847426	0.393755	0.216328
C41	C	0.534676	0.561367	0.611432
C42	C	0.808060	0.487812	0.155003
C43	C	0.610240	0.502985	0.542848
C44	C	0.863101	0.523754	0.044089
C45	C	0.941821	0.104076	0.463562
C46	C	0.667240	0.896974	0.988776
C47	C	0.574155	0.408696	0.468303
C48	C	0.819254	0.611753	0.965081
C49	C	0.540264	0.015949	0.739024
C50	C	0.579643	0.128329	0.748669
C51	C	0.952440	0.004854	0.942779
C52	C	0.864640	0.077738	0.905863
C53	C	0.280890	0.528241	0.409182
C54	C	0.346090	0.618621	0.359784
C55	C	0.523308	0.471957	0.891493
C56	C	0.629113	0.417888	0.882559
C57	C	0.046720	0.012856	0.724342
C58	C	0.088811	0.124370	0.730497
C59	C	0.445976	0.004987	0.956228
C60	C	0.359281	0.079428	0.919101
C61	C	0.804511	0.502669	0.473374
C62	C	0.897576	0.568067	0.445777
C63	C	0.728785	0.551801	0.226854
C64	C	0.608808	0.545920	0.205042
H1	H	0.239511	1.010246	0.450579
H2	H	0.277543	0.980809	0.179480
H3	H	0.006765	0.501001	0.932564
H4	H	0.310975	0.677246	0.590524
H5	H	0.077365	0.355219	0.075316
H6	H	0.167758	0.860108	0.581999
H7	H	0.421885	0.154444	0.124118
H8	H	0.450719	0.839535	0.798175
H9	H	0.224511	0.141671	0.306385
H10	H	0.047242	0.624890	0.819619
H11	H	0.278788	0.337442	0.276016
H12	H	0.450716	0.539390	0.607065
H13	H	0.206468	0.479465	0.127498
H14	H	0.741980	1.023562	0.443582
H15	H	0.779360	0.998743	0.178688
H16	H	0.823593	0.658103	0.634733
H17	H	0.564020	0.327507	0.078002
H18	H	0.663302	0.880539	0.581021
H19	H	0.939403	0.169076	0.094017
H20	H	0.952383	0.835889	0.779483
H21	H	0.719851	0.154940	0.310005
H22	H	0.509933	0.688490	0.751645
H23	H	0.800784	0.355883	0.291401
H24	H	0.997475	0.459318	0.691780
H25	H	0.571976	0.114303	0.569695
H26	H	0.601433	0.954314	0.754732
H27	H	0.518980	0.188404	0.725581
H28	H	0.652574	0.141307	0.692103
H29	H	0.608876	0.141534	0.848697
H30	H	0.935973	0.919048	0.940786
H31	H	0.011274	1.000096	0.837766
H32	H	0.810431	0.084383	0.988176
H33	H	0.817234	0.047138	0.824005
H34	H	0.893569	0.157938	0.883584
H35	H	0.227067	0.495140	0.332562
H36	H	0.334471	0.458262	0.430042
H37	H	0.296795	0.689563	0.339174
H38	H	0.385397	0.596580	0.269599
H39	H	0.409983	0.642329	0.429575
H40	H	0.475937	0.463107	0.799502
H41	H	0.530791	0.560505	0.894349
H42	H	0.619971	0.331602	0.865981
H43	H	0.675425	0.449762	0.802478
H44	H	0.677416	0.427028	0.972786
H45	H	0.081183	0.109924	0.551856
H46	H	0.106003	0.949556	0.741619
H47	H	0.029317	0.185042	0.705103
H48	H	0.161912	0.134207	0.673202
H49	H	0.118289	0.139412	0.829959
H50	H	0.504311	1.000317	0.853475
H51	H	0.426683	0.919665	0.954959
H52	H	0.389219	0.159873	0.900303
H53	H	0.313162	0.050514	0.835145
H54	H	0.303221	0.085025	0.999841
H55	H	0.739162	0.523070	0.330446
H56	H	0.805808	0.417079	0.454728
H57	H	0.876665	0.651337	0.426148
H58	H	0.945897	0.534630	0.369092
H59	H	0.949161	0.568597	0.534734
H60	H	0.756591	0.635168	0.229305
H61	H	0.675752	0.598059	0.039812
H62	H	0.569153	0.588858	0.282972
H63	H	0.575847	0.580515	0.113931
H64	H	0.583332	0.462779	0.207207
N1	N	0.303338	0.847916	0.703150
N2	N	0.078557	0.160295	0.206169
N3	N	0.182682	0.653578	0.711627
N4	N	0.428017	0.335272	0.190607
N5	N	0.802568	0.857498	0.692970
N6	N	0.567233	0.158850	0.223668
N7	N	0.670344	0.676298	0.702857
N8	N	0.943869	0.352270	0.192813
Ni1	Ni	0.243236	0.749414	0.843598
Ni2	Ni	0.500443	0.262153	0.340281
Ni3	Ni	0.737296	0.769635	0.835536
Ni4	Ni	1.012718	0.258961	0.330504
O1	O	0.136338	0.353720	0.375340
O2	O	0.370264	0.647553	0.875482
O3	O	0.381368	0.159438	0.397081
O4	O	0.110872	0.836052	0.898338
O5	O	0.476671	0.373987	0.473781
O6	O	0.220730	0.628547	0.973470
O7	O	0.047987	0.120898	0.464875
O8	O	0.266156	0.853164	0.990601
O9	O	0.633013	0.353047	0.393014
O10	O	0.866996	0.665507	0.881800
O11	O	0.891724	0.158346	0.379741
O12	O	0.606812	0.843943	0.908065
O13	O	0.994881	0.348156	0.491137
O14	O	0.717622	0.641342	0.978745
O15	O	0.537895	0.128454	0.484045
O16	O	0.765721	0.867622	0.988080
