data_NiPyC2_relax_sc211_meta_functionalized_CH2-CH3_pbesol_relax_frozen_parent_atoms_PM
_symmetry_space_group_name_H-M	'P1'
_cell_length_a	12.505617
_cell_length_b	12.523412
_cell_length_c	10.276810
_cell_angle_alpha	90.000000
_cell_angle_beta	91.268973
_cell_angle_gamma	90.000000
_symmetry_Int_Tables_number 1

loop_
_symmetry_equiv_pos_as_xyz
'x,y,z'

loop_
_atom_site_label
_atom_site_type_symbol
_atom_site_fract_x
_atom_site_fract_y
_atom_site_fract_z
C1	C	0.288212	0.970050	0.521984
C2	C	0.038379	0.031106	0.022308
C3	C	0.390634	0.011770	0.546492
C4	C	0.140244	0.987744	0.046146
C5	C	0.451915	0.970202	0.650371
C6	C	0.202520	0.028353	0.149893
C7	C	0.208181	0.529704	0.526384
C8	C	0.458545	0.471409	0.027904
C9	C	0.245137	0.613331	0.606435
C10	C	0.496819	0.388677	0.108617
C11	C	0.249476	0.889206	0.603203
C12	C	0.001069	0.112232	0.104247
C13	C	0.407977	0.889383	0.727552
C14	C	0.159935	0.109547	0.227812
C15	C	0.088862	0.608983	0.727352
C16	C	0.340890	0.391633	0.229394
C17	C	0.046925	0.525079	0.651312
C18	C	0.297658	0.474711	0.152754
C19	C	0.108164	0.484270	0.550116
C20	C	0.357832	0.515656	0.050638
C21	C	0.433310	0.099319	0.466621
C22	C	0.181517	0.899720	0.965672
C23	C	0.067378	0.394474	0.470676
C24	C	0.316043	0.604172	0.969107
C25	C	0.788212	0.970050	0.521984
C26	C	0.538379	0.031106	0.022308
C27	C	0.890634	0.011770	0.546492
C28	C	0.640244	0.987744	0.046146
C29	C	0.951915	0.970202	0.650371
C30	C	0.702520	0.028353	0.149893
C31	C	0.708182	0.529704	0.526384
C32	C	0.958546	0.471409	0.027904
C33	C	0.745137	0.613331	0.606435
C34	C	0.996819	0.388677	0.108617
C35	C	0.749476	0.889206	0.603203
C36	C	0.501069	0.112232	0.104247
C37	C	0.907977	0.889383	0.727552
C38	C	0.659934	0.109547	0.227812
C39	C	0.588862	0.608983	0.727352
C40	C	0.840890	0.391633	0.229394
C41	C	0.546925	0.525079	0.651312
C42	C	0.797658	0.474711	0.152754
C43	C	0.608164	0.484270	0.550116
C44	C	0.857832	0.515656	0.050638
C45	C	0.933310	0.099319	0.466621
C46	C	0.681517	0.899720	0.965672
C47	C	0.567377	0.394474	0.470676
C48	C	0.816043	0.604172	0.969107
C49	C	0.547290	0.016119	0.716953
C50	C	0.583291	1.130303	0.732235
C51	C	0.955226	1.004742	0.929895
C52	C	0.869086	0.080424	0.891955
C53	C	0.277562	0.514662	0.417833
C54	C	0.343003	0.608667	0.374533
C55	C	0.528387	0.492787	0.922051
C56	C	0.622646	0.421817	0.899453
C57	C	0.047443	0.015679	0.716885
C58	C	0.084406	1.129556	0.731953
C59	C	0.455257	1.004937	0.929724
C60	C	0.369394	0.080995	0.892048
C61	C	0.795391	0.497367	0.449223
C62	C	0.885155	0.568234	0.417952
C63	C	0.722271	0.546543	0.223663
C64	C	0.605238	0.579029	0.216546
H1	H	0.237124	0.999575	0.443113
H2	H	0.282340	0.998665	0.172602
H3	H	0.008641	0.500397	0.950548
H4	H	0.322641	0.650506	0.592635
H5	H	0.074968	0.352851	0.095028
H6	H	0.170154	0.855123	0.588560
H7	H	0.422322	0.147732	0.089886
H8	H	0.453370	0.855173	0.808761
H9	H	0.206239	0.143103	0.308797
H10	H	0.043729	0.642944	0.806608
H11	H	0.296378	0.357526	0.309051
H12	H	0.468672	0.493231	0.673502
H13	H	0.218952	0.505201	0.175264
H14	H	0.737124	0.999575	0.443113
H15	H	0.782340	0.998665	0.172602
H16	H	0.822641	0.650506	0.592635
H17	H	0.574968	0.352851	0.095028
H18	H	0.670154	0.855123	0.588560
H19	H	0.922322	0.147732	0.089886
H20	H	0.953370	0.855173	0.808761
H21	H	0.706240	0.143103	0.308797
H22	H	0.543729	0.642944	0.806608
H23	H	0.796378	0.357526	0.309051
H24	H	0.968672	0.493231	0.673502
H25	H	0.564946	0.126332	0.567653
H26	H	0.613142	0.958828	0.725094
H27	H	0.519866	1.189551	0.718933
H28	H	0.653601	1.149547	0.673057
H29	H	0.616046	1.138885	0.831571
H30	H	0.929432	0.922044	0.941353
H31	H	0.016840	-0.002975	0.829824
H32	H	0.810570	0.082286	0.969708
H33	H	0.825007	0.053329	0.805504
H34	H	0.899412	0.160967	0.876467
H35	H	0.223393	0.482963	0.342507
H36	H	0.333588	0.448776	0.446274
H37	H	0.294383	0.681344	0.367760
H38	H	0.377144	0.595103	0.278780
H39	H	0.412340	0.622979	0.439651
H40	H	0.473046	0.497660	0.838096
H41	H	0.551794	0.576635	0.937282
H42	H	0.597295	0.339043	0.883260
H43	H	0.668732	0.446110	0.815676
H44	H	0.679277	0.422960	0.982765
H45	H	0.066171	0.123833	0.566415
H46	H	0.112789	0.957838	0.725514
H47	H	0.021360	1.189217	0.718896
H48	H	0.154715	1.148259	0.672520
H49	H	0.117425	1.137478	0.831244
H50	H	0.517135	-0.003040	0.830029
H51	H	0.428389	0.922552	0.941244
H52	H	0.399972	0.161555	0.877440
H53	H	0.325665	0.054430	0.805159
H54	H	0.310399	0.082502	0.969278
H55	H	0.725838	0.508495	0.324935
H56	H	0.808652	0.411868	0.448993
H57	H	0.859201	0.649895	0.397508
H58	H	0.932253	0.537161	0.338699
H59	H	0.940457	0.571318	0.502342
H60	H	0.769334	0.620277	0.236300
H61	H	0.678142	0.613380	0.052905
H62	H	0.593283	0.636143	0.295361
H63	H	0.575277	0.619714	0.127696
H64	H	0.552976	0.511128	0.232294
N1	N	0.308437	0.851253	0.704828
N2	N	0.060729	0.148857	0.206052
N3	N	0.186542	0.650310	0.705838
N4	N	0.438810	0.350928	0.208041
N5	N	0.808437	0.851253	0.704828
N6	N	0.560729	0.148857	0.206052
N7	N	0.686543	0.650310	0.705838
N8	N	0.938810	0.350928	0.208041
Ni1	Ni	0.247002	0.751486	0.836326
Ni2	Ni	0.499972	0.247999	0.339178
Ni3	Ni	0.747002	0.751486	0.836326
Ni4	Ni	0.999972	0.247999	0.339178
O1	O	0.122778	0.347689	0.382873
O2	O	0.371208	0.650977	0.881292
O3	O	0.377630	0.147507	0.377178
O4	O	0.125098	0.852352	0.876261
O5	O	0.473069	0.356160	0.482994
O6	O	0.221137	0.641415	0.979877
O7	O	0.028840	0.135158	0.481078
O8	O	0.276686	0.862758	0.979399
O9	O	0.622779	0.347689	0.382873
O10	O	0.871208	0.650977	0.881292
O11	O	0.877630	0.147507	0.377178
O12	O	0.625098	0.852352	0.876261
O13	O	0.973069	0.356160	0.482994
O14	O	0.721137	0.641415	0.979877
O15	O	0.528840	0.135158	0.481078
O16	O	0.776686	0.862758	0.979399
