data_NiPyC2_relax_sc211_meta_functionalized_O-CH3_pbesol_relax_frozen_parent_atoms_Round2_PM
_symmetry_space_group_name_H-M	'P1'
_cell_length_a	12.505617
_cell_length_b	12.523412
_cell_length_c	10.276810
_cell_angle_alpha	90.000000
_cell_angle_beta	91.268973
_cell_angle_gamma	90.000000
_symmetry_Int_Tables_number 1

loop_
_symmetry_equiv_pos_as_xyz
'x,y,z'

loop_
_atom_site_label
_atom_site_type_symbol
_atom_site_fract_x
_atom_site_fract_y
_atom_site_fract_z
C1	C	0.289349	0.991003	0.551370
C2	C	0.038379	0.045164	0.011021
C3	C	0.389686	0.036243	0.578574
C4	C	0.134371	0.987137	0.040300
C5	C	0.448688	0.990800	0.685882
C6	C	0.193428	0.019893	0.150002
C7	C	0.211599	0.541576	0.517191
C8	C	0.459353	0.446575	0.008754
C9	C	0.242913	0.625614	0.603671
C10	C	0.494649	0.368488	0.101489
C11	C	0.251626	0.903222	0.620789
C12	C	0.004477	0.124723	0.100758
C13	C	0.407855	0.896790	0.746455
C14	C	0.157026	0.101510	0.231057
C15	C	0.095103	0.597587	0.733105
C16	C	0.333755	0.375951	0.209645
C17	C	0.062171	0.510948	0.655936
C18	C	0.296456	0.457663	0.126461
C19	C	0.119680	0.479516	0.547316
C20	C	0.359621	0.499160	0.028337
C21	C	0.430633	0.116359	0.487589
C22	C	0.175156	0.896949	0.963231
C23	C	0.078694	0.389240	0.468696
C24	C	0.321029	0.594086	0.955654
C25	C	0.773542	0.961362	0.521912
C26	C	0.529298	-0.000296	0.059443
C27	C	0.879592	0.003819	0.532485
C28	C	0.637398	0.970917	0.063244
C29	C	0.948571	0.953867	0.622255
C30	C	0.705425	0.031280	0.148644
C31	C	0.723188	0.535072	0.524910
C32	C	0.964637	0.490010	0.057952
C33	C	0.753740	0.616233	0.615134
C34	C	1.001746	0.403130	0.131521
C35	C	0.741511	0.883796	0.614482
C36	C	0.491741	0.084981	0.133580
C37	C	0.912742	0.873876	0.706432
C38	C	0.662844	0.121558	0.214902
C39	C	0.585458	0.617959	0.707348
C40	C	0.833959	0.376391	0.218767
C41	C	0.551152	0.535206	0.624366
C42	C	0.792390	0.469025	0.153479
C43	C	0.619193	0.489037	0.534159
C44	C	0.858757	0.525071	0.065227
C45	C	0.921289	0.095728	0.459101
C46	C	0.676976	0.888253	0.974937
C47	C	0.578384	0.397444	0.457803
C48	C	0.819558	0.608919	0.976180
C49	C	0.575064	0.132205	0.742532
C50	C	0.888882	0.091257	0.875924
C51	C	0.353767	0.592233	0.381559
C52	C	0.611365	0.405105	0.884861
C53	C	0.611147	0.927318	0.406806
C54	C	0.846113	0.906756	0.207676
C55	C	0.882004	0.570707	0.412550
C56	C	0.657990	0.600144	0.210408
H1	H	0.239016	1.023836	0.473734
H2	H	0.472317	-0.044484	0.999023
H3	H	0.030735	0.980812	0.633090
H4	H	0.268789	0.980858	0.174533
H5	H	0.020222	0.530866	0.995102
H6	H	0.315559	0.670880	0.587716
H7	H	0.084083	0.376004	0.128621
H8	H	0.173351	0.868533	0.600830
H9	H	0.407814	0.107437	0.133059
H10	H	0.455947	0.859729	0.823785
H11	H	0.203054	0.129005	0.315365
H12	H	0.050092	0.624544	0.816030
H13	H	0.286094	0.346678	0.288871
H14	H	0.471367	0.503100	0.636611
H15	H	0.218794	0.492431	0.144951
H16	H	0.834288	0.648654	0.616359
H17	H	0.574135	0.334412	0.096115
H18	H	0.659236	0.856278	0.616359
H19	H	0.929084	0.165960	0.084950
H20	H	0.964849	0.838987	0.780548
H21	H	0.715645	0.165818	0.280701
H22	H	0.534304	0.650593	0.781236
H23	H	0.782692	0.335046	0.286295
H24	H	0.990264	0.467747	0.681668
H25	H	0.638289	0.140530	0.671207
H26	H	0.508887	0.186825	0.721438
H27	H	0.608772	0.143335	0.841015
H28	H	0.859335	0.065056	0.781138
H29	H	0.829780	0.075461	0.950453
H30	H	0.912022	0.175631	0.873966
H31	H	0.383810	0.563572	0.289633
H32	H	0.324848	0.674616	0.373219
H33	H	0.415524	0.584777	0.458378
H34	H	0.640252	0.430359	0.790896
H35	H	0.589140	0.320535	0.884030
H36	H	0.670959	0.422095	0.961578
H37	H	0.573789	0.957709	0.318042
H38	H	0.557391	0.938935	0.488248
H39	H	0.633219	0.843009	0.397646
H40	H	0.907221	0.886561	0.137420
H41	H	0.883557	0.914426	0.305062
H42	H	0.780346	0.849446	0.207473
H43	H	0.920530	0.537202	0.328171
H44	H	0.856365	0.653419	0.395959
H45	H	0.936577	0.565686	0.497273
H46	H	0.595910	0.619893	0.137829
H47	H	0.724974	0.655990	0.208915
H48	H	0.622457	0.596162	0.307186
N1	N	0.311806	0.856244	0.716202
N2	N	0.061661	0.149978	0.207049
N3	N	0.186084	0.651662	0.707119
N4	N	0.434002	0.336762	0.199262
N5	N	0.808976	0.843622	0.703808
N6	N	0.558585	0.144233	0.210356
N7	N	0.687165	0.654141	0.703555
N8	N	0.936395	0.347875	0.210951
Ni1	Ni	0.249176	0.750246	0.837629
Ni2	Ni	0.500095	0.247246	0.338893
Ni3	Ni	0.748747	0.749943	0.836997
Ni4	Ni	0.999377	0.244707	0.340149
O1	O	0.129328	0.341479	0.378399
O2	O	0.375861	0.647981	0.874356
O3	O	0.371200	0.159799	0.398552
O4	O	0.121903	0.847255	0.873789
O5	O	0.480165	0.367713	0.467882
O6	O	0.226411	0.631461	0.972826
O7	O	0.020785	0.122227	0.469726
O8	O	0.270427	0.860208	0.983063
O9	O	0.632288	0.339808	0.379693
O10	O	0.879877	0.657837	0.895961
O11	O	0.866234	0.157033	0.383343
O12	O	0.615687	0.833277	0.898805
O13	O	0.984240	0.351768	0.486717
O14	O	0.720862	0.637524	0.969138
O15	O	0.529279	0.144734	0.484290
O16	O	0.777036	0.866117	0.965138
O17	O	0.538938	0.022563	0.742071
O18	O	0.983219	0.026412	0.903521
O19	O	0.264789	0.522446	0.411126
O20	O	0.516609	0.469268	0.907097
O21	O	0.707507	0.990624	0.427530
O22	O	0.807187	0.012914	0.178342
O23	O	0.788838	0.504709	0.434201
O24	O	0.693643	0.492242	0.186568
