data_NiPyC2_relax_sc211_meta_functionalized_CH2-CH2-CH3_pbesol_relax_frozen_parent_atoms_PM
_symmetry_space_group_name_H-M	'P1'
_cell_length_a	12.505617
_cell_length_b	12.523412
_cell_length_c	10.276810
_cell_angle_alpha	90.000000
_cell_angle_beta	91.268973
_cell_angle_gamma	90.000000
_symmetry_Int_Tables_number 1

loop_
_symmetry_equiv_pos_as_xyz
'x,y,z'

loop_
_atom_site_label
_atom_site_type_symbol
_atom_site_fract_x
_atom_site_fract_y
_atom_site_fract_z
C1	C	0.288212	0.970050	0.521984
C2	C	0.038379	0.031106	0.022308
C3	C	0.390634	0.011770	0.546492
C4	C	0.140244	0.987744	0.046146
C5	C	0.451915	0.970202	0.650371
C6	C	0.202520	0.028353	0.149893
C7	C	0.208181	0.529704	0.526384
C8	C	0.458545	0.471409	0.027904
C9	C	0.245137	0.613331	0.606435
C10	C	0.496819	0.388677	0.108617
C11	C	0.249476	0.889206	0.603203
C12	C	0.001069	0.112232	0.104247
C13	C	0.407977	0.889383	0.727552
C14	C	0.159935	0.109547	0.227812
C15	C	0.088862	0.608983	0.727352
C16	C	0.340890	0.391633	0.229394
C17	C	0.046925	0.525079	0.651312
C18	C	0.297658	0.474711	0.152754
C19	C	0.108164	0.484270	0.550116
C20	C	0.357832	0.515656	0.050638
C21	C	0.433310	0.099319	0.466621
C22	C	0.181517	0.899720	0.965672
C23	C	0.067378	0.394474	0.470676
C24	C	0.316043	0.604172	0.969107
C25	C	0.788212	0.970050	0.521984
C26	C	0.538379	0.031106	0.022308
C27	C	0.890634	0.011770	0.546492
C28	C	0.640244	0.987744	0.046146
C29	C	0.951915	0.970202	0.650371
C30	C	0.702520	0.028353	0.149893
C31	C	0.708182	0.529704	0.526384
C32	C	0.958546	0.471409	0.027904
C33	C	0.745137	0.613331	0.606435
C34	C	0.996819	0.388677	0.108617
C35	C	0.749476	0.889206	0.603203
C36	C	0.501069	0.112232	0.104247
C37	C	0.907977	0.889383	0.727552
C38	C	0.659934	0.109547	0.227812
C39	C	0.588862	0.608983	0.727352
C40	C	0.840890	0.391633	0.229394
C41	C	0.546925	0.525079	0.651312
C42	C	0.797658	0.474711	0.152754
C43	C	0.608164	0.484270	0.550116
C44	C	0.857832	0.515656	0.050638
C45	C	0.933310	0.099319	0.466621
C46	C	0.681517	0.899720	0.965672
C47	C	0.567377	0.394474	0.470676
C48	C	0.816043	0.604172	0.969107
C49	C	0.529582	0.048139	0.716505
C50	C	0.649009	1.053585	0.745663
C51	C	0.723056	0.144109	0.702069
C52	C	0.990802	1.049308	0.889772
C53	C	0.872992	0.084493	0.870541
C54	C	0.836330	1.133313	0.746936
C55	C	0.979977	0.443543	0.720682
C56	C	0.859600	0.447646	0.720284
C57	C	0.797725	0.382267	0.813427
C58	C	0.245983	0.566264	0.224643
C59	C	0.126934	0.570506	0.219750
C60	C	0.066651	0.643688	0.310007
C61	C	0.748466	-0.091133	0.386334
C62	C	0.629514	0.877797	0.393828
C63	C	0.547809	-0.109661	0.286110
C64	C	0.449534	1.013078	0.931078
C65	C	0.363291	0.096980	0.911788
C66	C	0.282012	1.094841	0.802893
C67	C	0.796337	0.514968	0.437474
C68	C	0.880629	0.602895	0.430089
C69	C	0.961585	0.583349	0.327882
C70	C	0.724076	0.551117	0.217156
C71	C	0.607268	0.565722	0.239723
C72	C	0.555923	0.654694	0.160093
H1	H	0.237124	0.999575	0.443113
H2	H	0.032063	0.998805	0.673520
H3	H	0.282340	0.998665	0.172602
H4	H	0.258700	0.500895	0.449282
H5	H	0.008641	0.500397	0.950548
H6	H	0.322641	0.650506	0.592635
H7	H	0.074968	0.352851	0.095028
H8	H	0.170154	0.855123	0.588560
H9	H	0.422322	0.147732	0.089886
H10	H	0.453370	0.855173	0.808761
H11	H	0.206239	0.143103	0.308797
H12	H	0.043729	0.642944	0.806608
H13	H	0.296378	0.357526	0.309051
H14	H	0.468672	0.493231	0.673502
H15	H	0.782340	0.998665	0.172602
H16	H	0.508641	0.500397	0.950548
H17	H	0.822641	0.650506	0.592635
H18	H	0.574968	0.352851	0.095028
H19	H	0.670154	0.855123	0.588560
H20	H	0.922322	0.147732	0.089886
H21	H	0.953370	0.855173	0.808761
H22	H	0.706240	0.143103	0.308797
H23	H	0.543729	0.642944	0.806608
H24	H	0.796378	0.357526	0.309051
H25	H	0.491164	0.127255	0.715932
H26	H	0.571619	1.101649	0.552503
H27	H	0.681526	0.977170	0.716955
H28	H	0.657072	1.056571	0.852370
H29	H	0.728111	1.034248	0.510084
H30	H	0.826050	0.902117	1.038235
H31	H	0.695569	0.219832	0.745849
H32	H	0.043111	0.109637	0.844727
H33	H	1.011587	0.977555	0.838044
H34	H	0.816324	0.023415	0.900134
H35	H	0.856092	0.152263	0.937349
H36	H	0.758253	0.878904	0.781976
H37	H	0.721731	0.162829	0.597150
H38	H	0.893946	0.183253	0.696652
H39	H	1.009761	0.443639	0.821476
H40	H	1.001698	0.363835	0.685073
H41	H	0.835318	0.422880	0.621402
H42	H	0.836227	0.532325	0.729237
H43	H	0.716604	0.368089	0.774527
H44	H	0.786112	0.421715	0.907526
H45	H	0.836801	0.305579	0.834124
H46	H	0.278225	0.642002	0.189101
H47	H	0.274412	0.562533	0.325553
H48	H	0.102394	0.486978	0.234111
H49	H	0.106946	0.592508	0.117050
H50	H	0.108005	0.655614	0.403700
H51	H	1.005216	0.508216	0.378697
H52	H	1.013638	0.532735	0.088147
H53	H	0.763939	-0.028666	0.317315
H54	H	0.801300	0.840820	0.368799
H55	H	0.626834	0.793273	0.424886
H56	H	0.593751	0.923674	0.474241
H57	H	0.574741	0.863298	0.190950
H58	H	0.476718	0.842875	0.307816
H59	H	0.520549	-0.027195	0.274869
H60	H	0.501075	0.018898	0.827257
H61	H	0.417603	0.932031	0.932808
H62	H	0.315166	0.091682	1.001101
H63	H	0.401600	0.176359	0.912188
H64	H	0.240917	1.018292	0.792599
H65	H	0.221415	0.156214	0.819843
H66	H	0.316292	0.114975	0.708566
H67	H	0.749105	0.518356	0.333115
H68	H	0.832338	0.435860	0.437471
H69	H	0.928161	0.605844	0.521553
H70	H	0.844513	0.681542	0.412891
H71	H	0.964096	0.489612	0.297764
H72	H	0.049652	0.721852	0.266498
H73	H	0.922755	0.581597	0.229713
H74	H	0.670060	0.616012	0.046107
H75	H	0.762743	0.630417	0.218375
H76	H	0.601861	0.590986	0.342392
H77	H	0.565316	0.489668	0.233174
H78	H	0.605880	0.726231	0.166209
H79	H	0.477859	0.674894	0.198175
H80	H	0.540337	0.636593	0.056787
N1	N	0.308437	0.851253	0.704828
N2	N	0.060729	0.148857	0.206052
N3	N	0.186542	0.650310	0.705838
N4	N	0.438810	0.350928	0.208041
N5	N	0.808437	0.851253	0.704828
N6	N	0.560729	0.148857	0.206052
N7	N	0.686543	0.650310	0.705838
N8	N	0.938810	0.350928	0.208041
Ni1	Ni	0.247002	0.751486	0.836326
Ni2	Ni	0.499972	0.247999	0.339178
Ni3	Ni	0.747002	0.751486	0.836326
Ni4	Ni	0.999972	0.247999	0.339178
O1	O	0.122778	0.347689	0.382873
O2	O	0.371208	0.650977	0.881292
O3	O	0.377630	0.147507	0.377178
O4	O	0.125098	0.852352	0.876261
O5	O	0.473069	0.356160	0.482994
O6	O	0.221137	0.641415	0.979877
O7	O	0.028840	0.135158	0.481078
O8	O	0.276686	0.862758	0.979399
O9	O	0.622779	0.347689	0.382873
O10	O	0.871208	0.650977	0.881292
O11	O	0.877630	0.147507	0.377178
O12	O	0.625098	0.852352	0.876261
O13	O	0.973069	0.356160	0.482994
O14	O	0.721137	0.641415	0.979877
O15	O	0.528840	0.135158	0.481078
O16	O	0.776686	0.862758	0.979399
