data_NiPyC2_relax_sc211_meta_functionalized_CH-CH2_pbesol_relax_frozen_parent_atoms_Round2_PM
_symmetry_space_group_name_H-M	'P1'
_cell_length_a	12.505617
_cell_length_b	12.523412
_cell_length_c	10.276810
_cell_angle_alpha	90.000000
_cell_angle_beta	91.268973
_cell_angle_gamma	90.000000
_symmetry_Int_Tables_number 1

loop_
_symmetry_equiv_pos_as_xyz
'x,y,z'

loop_
_atom_site_label
_atom_site_type_symbol
_atom_site_fract_x
_atom_site_fract_y
_atom_site_fract_z
C1	C	0.287921	0.987779	0.541538
C2	C	0.032471	0.022591	0.025805
C3	C	0.396182	0.014242	0.549821
C4	C	0.131632	0.977402	0.056879
C5	C	0.463648	0.953301	0.637291
C6	C	0.190713	0.016997	0.166612
C7	C	0.212347	0.522034	0.506364
C8	C	0.467059	0.486810	0.049594
C9	C	0.242599	0.610542	0.582241
C10	C	0.489004	0.393619	0.122674
C11	C	0.248026	0.903663	0.615136
C12	C	-0.006470	0.104236	0.104865
C13	C	0.418132	0.860926	0.697488
C14	C	0.147178	0.102981	0.238180
C15	C	0.086161	0.601836	0.700644
C16	C	0.322196	0.395107	0.217654
C17	C	0.056211	0.503935	0.640061
C18	C	0.291637	0.484635	0.143485
C19	C	0.117931	0.468627	0.534674
C20	C	0.364006	0.532906	0.059623
C21	C	0.436931	0.103378	0.474686
C22	C	0.179750	0.892752	0.981028
C23	C	0.074261	0.379900	0.457160
C24	C	0.326773	0.621269	0.976331
C25	C	0.789369	0.938013	0.507405
C26	C	0.516102	0.036081	0.022670
C27	C	0.884231	-0.004072	0.539277
C28	C	0.623402	0.998263	0.030760
C29	C	0.943470	0.966958	0.650675
C30	C	0.694900	0.055450	0.110576
C31	C	0.721062	0.527526	0.524734
C32	C	0.969451	0.474958	0.053108
C33	C	0.751070	0.610370	0.610023
C34	C	0.990979	0.381048	0.126345
C35	C	0.756331	0.860022	0.598120
C36	C	0.485568	0.116796	0.111331
C37	C	0.905698	0.887230	0.733154
C38	C	0.658451	0.136140	0.193271
C39	C	0.589366	0.601701	0.716610
C40	C	0.830294	0.392266	0.232458
C41	C	0.560016	0.506982	0.648272
C42	C	0.801024	0.484337	0.161962
C43	C	0.623960	0.475866	0.543128
C44	C	0.871170	0.529128	0.072858
C45	C	0.922610	0.087438	0.463089
C46	C	0.666163	0.904424	0.960138
C47	C	0.578787	0.393537	0.457234
C48	C	0.835275	0.623842	0.997077
C49	C	0.561427	-0.010525	0.678374
C50	C	0.638393	0.047761	0.728916
C51	C	0.284824	0.968341	0.207876
C52	C	0.323944	0.874042	0.141542
C53	C	0.975337	0.436780	0.692758
C54	C	0.888401	0.470744	0.759579
C55	C	0.555271	0.527909	0.980726
C56	C	0.633089	0.462969	0.931327
C57	C	0.728018	0.952899	0.390708
C58	C	0.628734	0.911029	0.364240
C59	C	0.437202	0.999011	0.931810
C60	C	0.350530	0.057299	0.890071
C61	C	0.476934	0.437764	0.692415
C62	C	0.383034	0.468663	0.746033
C63	C	0.051347	0.509704	0.970007
C64	C	0.129242	0.444055	0.921752
H1	H	0.232427	1.034981	0.482608
H2	H	0.017921	1.007437	0.675981
H3	H	0.264556	0.495298	0.429739
H4	H	0.317267	0.652743	0.566761
H5	H	0.067071	0.340313	0.117509
H6	H	0.163254	0.884669	0.615892
H7	H	0.402432	0.141889	0.115002
H8	H	0.468279	0.808443	0.756871
H9	H	0.191272	0.137796	0.320209
H10	H	0.035647	0.637755	0.773534
H11	H	0.268070	0.358104	0.285931
H12	H	0.211670	0.516822	0.153807
H13	H	0.983710	-0.004821	0.943751
H14	H	0.779048	1.033986	0.114259
H15	H	0.775109	0.503827	0.448474
H16	H	0.827262	0.650981	0.600995
H17	H	0.567328	0.356646	0.118501
H18	H	0.683258	0.814946	0.580618
H19	H	0.915873	0.141106	0.086665
H20	H	0.949620	0.862240	0.820212
H21	H	0.711854	0.176868	0.261427
H22	H	0.534839	0.636127	0.786065
H23	H	0.777701	0.359063	0.304768
H24	H	0.723901	0.520776	0.179657
H25	H	0.579280	0.099746	0.556559
H26	H	0.722605	0.040952	0.702841
H27	H	0.618627	0.105382	0.805711
H28	H	0.328346	0.996670	0.293947
H29	H	0.310660	0.801477	0.201794
H30	H	0.410707	0.876742	0.125207
H31	H	-0.013516	0.351444	0.678400
H32	H	0.878670	0.554679	0.781964
H33	H	0.829284	0.413961	0.792527
H34	H	0.560305	0.613805	0.969695
H35	H	0.626062	0.376391	0.935373
H36	H	0.700730	0.496687	0.882569
H37	H	0.764895	1.003583	0.318768
H38	H	0.586479	0.862009	0.433861
H39	H	0.589210	0.928298	0.271433
H40	H	0.450851	0.919564	0.893229
H41	H	0.336756	0.138049	0.925263
H42	H	0.295345	0.025071	0.817115
H43	H	0.492999	0.352693	0.682050
H44	H	0.366309	0.552531	0.760103
H45	H	0.324314	0.409368	0.773215
H46	H	0.050456	0.593692	0.945079
H47	H	0.129208	0.358185	0.938678
H48	H	0.190297	0.477201	0.860944
N1	N	0.313003	0.841757	0.691895
N2	N	0.050040	0.142195	0.209239
N3	N	0.180742	0.648711	0.679025
N4	N	0.420655	0.351873	0.206424
N5	N	0.811016	0.837983	0.708007
N6	N	0.553484	0.161878	0.197268
N7	N	0.686243	0.646880	0.705136
N8	N	0.924624	0.342303	0.214268
Ni1	Ni	0.247549	0.744016	0.818773
Ni2	Ni	0.493732	0.256102	0.331131
Ni3	Ni	0.745466	0.750764	0.844459
Ni4	Ni	0.987239	0.237054	0.339783
O1	O	0.124890	0.326058	0.372668
O2	O	0.384891	0.673199	0.895780
O3	O	0.381695	0.154451	0.391527
O4	O	0.140991	0.853818	0.877493
O5	O	0.479800	0.364881	0.467895
O6	O	0.227415	0.648466	0.971175
O7	O	0.018007	0.124008	0.478615
O8	O	0.275490	0.853456	1.016092
O9	O	0.627976	0.344587	0.366832
O10	O	0.889626	0.672785	0.910595
O11	O	0.864864	0.139286	0.378777
O12	O	0.610227	0.837903	0.891315
O13	O	0.975306	0.351600	0.469525
O14	O	0.738925	0.659313	1.005597
O15	O	0.538323	0.135718	0.484446
O16	O	0.766396	0.883002	0.965781
