data_NiPyC2_comp2_PM
_symmetry_space_group_name_H-M	'P1'
_cell_length_a	25.011200
_cell_length_b	50.093600
_cell_length_c	41.107200
_cell_angle_alpha	90.000000
_cell_angle_beta	91.269000
_cell_angle_gamma	90.000000
_symmetry_Int_Tables_number 1

loop_
_symmetry_equiv_pos_as_xyz
'x,y,z'

loop_
_atom_site_label
_atom_site_type_symbol
_atom_site_fract_x
_atom_site_fract_y
_atom_site_fract_z
O1	O	0.188725	0.033270	0.092550
O2	O	0.234225	0.088057	0.124325
H1	H	0.015050	0.244450	0.162625
H2	H	0.236150	0.123125	0.169775
C1	C	0.219500	0.022325	0.113750
Ni1	Ni	0.248700	0.061510	0.084858
N1	N	0.215275	0.088475	0.053775
H3	H	0.000050	0.003450	0.236025
C2	C	0.226925	0.120225	0.011025
C3	C	0.245075	0.099200	0.030425
H4	H	0.218025	0.036750	0.019775
C4	C	0.166125	0.098875	0.058650
H5	H	0.144825	0.091350	0.075175
C5	C	0.145650	0.119925	0.040650
H6	H	0.111150	0.126875	0.044775
C6	C	0.176975	0.130750	0.016150
Ni2	Ni	0.123700	0.188490	0.459858
O3	O	0.060325	0.087405	0.348225
O4	O	0.016625	0.029950	0.368550
N2	N	0.156975	0.210725	0.424050
N3	N	0.090275	0.161525	0.428775
C7	C	0.146950	0.239825	0.378350
H7	H	0.125050	0.246550	0.361025
C8	C	0.198300	0.249500	0.383425
C9	C	0.229275	0.238650	0.408850
C10	C	0.101925	0.129775	0.386025
H8	H	0.123775	0.122750	0.369450
C11	C	0.120075	0.150800	0.405425
H9	H	0.154775	0.157825	0.401975
C12	C	0.127875	0.220225	0.398750
H10	H	0.093025	0.213250	0.394775
C13	C	0.207125	0.219425	0.428425
H11	H	0.228325	0.212075	0.445650
C14	C	0.041125	0.151125	0.433650
H12	H	0.019825	0.158650	0.450175
C15	C	0.020650	0.130075	0.415650
C16	C	0.051975	0.119250	0.391150
C17	C	0.030500	0.096550	0.370375
O5	O	0.185325	0.162595	0.473225
O6	O	0.063725	0.216730	0.467550
O7	O	0.109225	0.161942	0.499325
O8	O	0.141625	0.220050	0.493550
N4	N	0.031975	0.039275	0.299050
C18	C	0.021950	0.010175	0.253350
C19	C	0.073300	0.000500	0.258425
C20	C	0.104275	0.011350	0.283850
H13	H	0.140050	0.005550	0.287625
H14	H	0.248775	0.127250	0.494450
H15	H	0.029775	0.092175	0.276975
C21	C	0.002875	0.029775	0.273750
C22	C	0.082125	0.030575	0.303425
H16	H	0.103325	0.037925	0.320650
C23	C	0.094500	0.227675	0.488750
C24	C	0.155500	0.153450	0.495375
O9	O	0.188725	0.033270	0.592550
O10	O	0.234225	0.088057	0.624325
H17	H	0.015050	0.244450	0.662625
H18	H	0.236150	0.123125	0.669775
C25	C	0.219500	0.022325	0.613750
Ni3	Ni	0.248700	0.061510	0.584858
N5	N	0.215275	0.088475	0.553775
H19	H	0.000050	0.003450	0.736025
C26	C	0.226925	0.120225	0.511025
C27	C	0.245075	0.099200	0.530425
H20	H	0.218025	0.036750	0.519775
C28	C	0.166125	0.098875	0.558650
H21	H	0.144825	0.091350	0.575175
C29	C	0.145650	0.119925	0.540650
H22	H	0.111150	0.126875	0.544775
C30	C	0.176975	0.130750	0.516150
Ni4	Ni	0.123700	0.188490	0.959858
O11	O	0.060325	0.087405	0.848225
O12	O	0.016625	0.029950	0.868550
N6	N	0.156975	0.210725	0.924050
N7	N	0.090275	0.161525	0.928775
C31	C	0.146950	0.239825	0.878350
H23	H	0.125050	0.246550	0.861025
C32	C	0.198300	0.249500	0.883425
C33	C	0.229275	0.238650	0.908850
C34	C	0.101925	0.129775	0.886025
H24	H	0.123775	0.122750	0.869450
C35	C	0.120075	0.150800	0.905425
H25	H	0.154775	0.157825	0.901975
C36	C	0.127875	0.220225	0.898750
H26	H	0.093025	0.213250	0.894775
C37	C	0.207125	0.219425	0.928425
H27	H	0.228325	0.212075	0.945650
C38	C	0.041125	0.151125	0.933650
H28	H	0.019825	0.158650	0.950175
C39	C	0.020650	0.130075	0.915650
C40	C	0.051975	0.119250	0.891150
C41	C	0.030500	0.096550	0.870375
O13	O	0.185325	0.162595	0.973225
O14	O	0.063725	0.216730	0.967550
O15	O	0.109225	0.161942	0.999325
O16	O	0.141625	0.220050	0.993550
N8	N	0.031975	0.039275	0.799050
C42	C	0.021950	0.010175	0.753350
C43	C	0.073300	0.000500	0.758425
C44	C	0.104275	0.011350	0.783850
H29	H	0.140050	0.005550	0.787625
H30	H	0.248775	0.127250	0.994450
H31	H	0.029775	0.092175	0.776975
C45	C	0.002875	0.029775	0.773750
C46	C	0.082125	0.030575	0.803425
H32	H	0.103325	0.037925	0.820650
C47	C	0.094500	0.227675	0.988750
C48	C	0.155500	0.153450	0.995375
Ni5	Ni	0.123700	0.438490	0.209858
O17	O	0.060325	0.337405	0.098225
O18	O	0.016625	0.279950	0.118550
N9	N	0.156975	0.460725	0.174050
N10	N	0.090275	0.411525	0.178775
C49	C	0.146950	0.489825	0.128350
H33	H	0.125050	0.496550	0.111025
C50	C	0.198300	0.499500	0.133425
C51	C	0.229275	0.488650	0.158850
C52	C	0.101925	0.379775	0.136025
H34	H	0.123775	0.372750	0.119450
C53	C	0.120075	0.400800	0.155425
H35	H	0.154775	0.407825	0.151975
C54	C	0.127875	0.470225	0.148750
H36	H	0.093025	0.463250	0.144775
C55	C	0.207125	0.469425	0.178425
H37	H	0.228325	0.462075	0.195650
C56	C	0.041125	0.401125	0.183650
H38	H	0.019825	0.408650	0.200175
C57	C	0.020650	0.380075	0.165650
C58	C	0.051975	0.369250	0.141150
C59	C	0.030500	0.346550	0.120375
O19	O	0.185325	0.412595	0.223225
O20	O	0.063725	0.466730	0.217550
O21	O	0.109225	0.411942	0.249325
O22	O	0.141625	0.470050	0.243550
N11	N	0.031975	0.289275	0.049050
C60	C	0.021950	0.260175	0.003350
C61	C	0.073300	0.250500	0.008425
C62	C	0.104275	0.261350	0.033850
H39	H	0.140050	0.255550	0.037625
H40	H	0.248775	0.377250	0.244450
H41	H	0.029775	0.342175	0.026975
C63	C	0.002875	0.279775	0.023750
C64	C	0.082125	0.280575	0.053425
H42	H	0.103325	0.287925	0.070650
C65	C	0.094500	0.477675	0.238750
C66	C	0.155500	0.403450	0.245375
O23	O	0.188725	0.283270	0.342550
O24	O	0.234225	0.338058	0.374325
H43	H	0.015050	0.494450	0.412625
H44	H	0.236150	0.373125	0.419775
C67	C	0.219500	0.272325	0.363750
Ni6	Ni	0.248700	0.311510	0.334858
N12	N	0.215275	0.338475	0.303775
H45	H	0.000050	0.253450	0.486025
C68	C	0.226925	0.370225	0.261025
C69	C	0.245075	0.349200	0.280425
H46	H	0.218025	0.286750	0.269775
C70	C	0.166125	0.348875	0.308650
H47	H	0.144825	0.341350	0.325175
C71	C	0.145650	0.369925	0.290650
H48	H	0.111150	0.376875	0.294775
C72	C	0.176975	0.380750	0.266150
Ni7	Ni	0.123700	0.438490	0.709858
O25	O	0.060325	0.337405	0.598225
O26	O	0.016625	0.279950	0.618550
N13	N	0.156975	0.460725	0.674050
N14	N	0.090275	0.411525	0.678775
C73	C	0.146950	0.489825	0.628350
H49	H	0.125050	0.496550	0.611025
C74	C	0.198300	0.499500	0.633425
C75	C	0.229275	0.488650	0.658850
C76	C	0.101925	0.379775	0.636025
H50	H	0.123775	0.372750	0.619450
C77	C	0.120075	0.400800	0.655425
H51	H	0.154775	0.407825	0.651975
C78	C	0.127875	0.470225	0.648750
H52	H	0.093025	0.463250	0.644775
C79	C	0.207125	0.469425	0.678425
H53	H	0.228325	0.462075	0.695650
C80	C	0.041125	0.401125	0.683650
H54	H	0.019825	0.408650	0.700175
C81	C	0.020650	0.380075	0.665650
C82	C	0.051975	0.369250	0.641150
C83	C	0.030500	0.346550	0.620375
O27	O	0.185325	0.412595	0.723225
O28	O	0.063725	0.466730	0.717550
O29	O	0.109225	0.411942	0.749325
O30	O	0.141625	0.470050	0.743550
N15	N	0.031975	0.289275	0.549050
C84	C	0.021950	0.260175	0.503350
C85	C	0.073300	0.250500	0.508425
C86	C	0.104275	0.261350	0.533850
H55	H	0.140050	0.255550	0.537625
H56	H	0.248775	0.377250	0.744450
H57	H	0.029775	0.342175	0.526975
C87	C	0.002875	0.279775	0.523750
C88	C	0.082125	0.280575	0.553425
H58	H	0.103325	0.287925	0.570650
C89	C	0.094500	0.477675	0.738750
C90	C	0.155500	0.403450	0.745375
O31	O	0.188725	0.283270	0.842550
O32	O	0.234225	0.338058	0.874325
H59	H	0.015050	0.494450	0.912625
H60	H	0.236150	0.373125	0.919775
C91	C	0.219500	0.272325	0.863750
Ni8	Ni	0.248700	0.311510	0.834858
N16	N	0.215275	0.338475	0.803775
H61	H	0.000050	0.253450	0.986025
C92	C	0.226925	0.370225	0.761025
C93	C	0.245075	0.349200	0.780425
H62	H	0.218025	0.286750	0.769775
C94	C	0.166125	0.348875	0.808650
H63	H	0.144825	0.341350	0.825175
C95	C	0.145650	0.369925	0.790650
H64	H	0.111150	0.376875	0.794775
C96	C	0.176975	0.380750	0.766150
O33	O	0.188725	0.533270	0.092550
O34	O	0.234225	0.588058	0.124325
H65	H	0.015050	0.744450	0.162625
H66	H	0.236150	0.623125	0.169775
C97	C	0.219500	0.522325	0.113750
Ni9	Ni	0.248700	0.561510	0.084858
N17	N	0.215275	0.588475	0.053775
H67	H	0.000050	0.503450	0.236025
C98	C	0.226925	0.620225	0.011025
C99	C	0.245075	0.599200	0.030425
H68	H	0.218025	0.536750	0.019775
C100	C	0.166125	0.598875	0.058650
H69	H	0.144825	0.591350	0.075175
C101	C	0.145650	0.619925	0.040650
H70	H	0.111150	0.626875	0.044775
C102	C	0.176975	0.630750	0.016150
Ni10	Ni	0.123700	0.688490	0.459858
O35	O	0.060325	0.587405	0.348225
O36	O	0.016625	0.529950	0.368550
N18	N	0.156975	0.710725	0.424050
N19	N	0.090275	0.661525	0.428775
C103	C	0.146950	0.739825	0.378350
H71	H	0.125050	0.746550	0.361025
C104	C	0.198300	0.749500	0.383425
C105	C	0.229275	0.738650	0.408850
C106	C	0.101925	0.629775	0.386025
H72	H	0.123775	0.622750	0.369450
C107	C	0.120075	0.650800	0.405425
H73	H	0.154775	0.657825	0.401975
C108	C	0.127875	0.720225	0.398750
H74	H	0.093025	0.713250	0.394775
C109	C	0.207125	0.719425	0.428425
H75	H	0.228325	0.712075	0.445650
C110	C	0.041125	0.651125	0.433650
H76	H	0.019825	0.658650	0.450175
C111	C	0.020650	0.630075	0.415650
C112	C	0.051975	0.619250	0.391150
C113	C	0.030500	0.596550	0.370375
O37	O	0.185325	0.662595	0.473225
O38	O	0.063725	0.716730	0.467550
O39	O	0.109225	0.661942	0.499325
O40	O	0.141625	0.720050	0.493550
N20	N	0.031975	0.539275	0.299050
C114	C	0.021950	0.510175	0.253350
C115	C	0.073300	0.500500	0.258425
C116	C	0.104275	0.511350	0.283850
H77	H	0.140050	0.505550	0.287625
H78	H	0.248775	0.627250	0.494450
H79	H	0.029775	0.592175	0.276975
C117	C	0.002875	0.529775	0.273750
C118	C	0.082125	0.530575	0.303425
H80	H	0.103325	0.537925	0.320650
C119	C	0.094500	0.727675	0.488750
C120	C	0.155500	0.653450	0.495375
O41	O	0.188725	0.533270	0.592550
O42	O	0.234225	0.588058	0.624325
H81	H	0.015050	0.744450	0.662625
H82	H	0.236150	0.623125	0.669775
C121	C	0.219500	0.522325	0.613750
Ni11	Ni	0.248700	0.561510	0.584858
N21	N	0.215275	0.588475	0.553775
H83	H	0.000050	0.503450	0.736025
C122	C	0.226925	0.620225	0.511025
C123	C	0.245075	0.599200	0.530425
H84	H	0.218025	0.536750	0.519775
C124	C	0.166125	0.598875	0.558650
H85	H	0.144825	0.591350	0.575175
C125	C	0.145650	0.619925	0.540650
H86	H	0.111150	0.626875	0.544775
C126	C	0.176975	0.630750	0.516150
Ni12	Ni	0.123700	0.688490	0.959858
O43	O	0.060325	0.587405	0.848225
O44	O	0.016625	0.529950	0.868550
N22	N	0.156975	0.710725	0.924050
N23	N	0.090275	0.661525	0.928775
C127	C	0.146950	0.739825	0.878350
H87	H	0.125050	0.746550	0.861025
C128	C	0.198300	0.749500	0.883425
C129	C	0.229275	0.738650	0.908850
C130	C	0.101925	0.629775	0.886025
H88	H	0.123775	0.622750	0.869450
C131	C	0.120075	0.650800	0.905425
H89	H	0.154775	0.657825	0.901975
C132	C	0.127875	0.720225	0.898750
H90	H	0.093025	0.713250	0.894775
C133	C	0.207125	0.719425	0.928425
H91	H	0.228325	0.712075	0.945650
C134	C	0.041125	0.651125	0.933650
H92	H	0.019825	0.658650	0.950175
C135	C	0.020650	0.630075	0.915650
C136	C	0.051975	0.619250	0.891150
C137	C	0.030500	0.596550	0.870375
O45	O	0.185325	0.662595	0.973225
O46	O	0.063725	0.716730	0.967550
O47	O	0.109225	0.661942	0.999325
O48	O	0.141625	0.720050	0.993550
N24	N	0.031975	0.539275	0.799050
C138	C	0.021950	0.510175	0.753350
C139	C	0.073300	0.500500	0.758425
C140	C	0.104275	0.511350	0.783850
H93	H	0.140050	0.505550	0.787625
H94	H	0.248775	0.627250	0.994450
H95	H	0.029775	0.592175	0.776975
C141	C	0.002875	0.529775	0.773750
C142	C	0.082125	0.530575	0.803425
H96	H	0.103325	0.537925	0.820650
C143	C	0.094500	0.727675	0.988750
C144	C	0.155500	0.653450	0.995375
Ni13	Ni	0.123700	0.938490	0.209858
O49	O	0.060325	0.837405	0.098225
O50	O	0.016625	0.779950	0.118550
N25	N	0.156975	0.960725	0.174050
N26	N	0.090275	0.911525	0.178775
C145	C	0.146950	0.989825	0.128350
H97	H	0.125050	0.996550	0.111025
C146	C	0.198300	0.999500	0.133425
C147	C	0.229275	0.988650	0.158850
C148	C	0.101925	0.879775	0.136025
H98	H	0.123775	0.872750	0.119450
C149	C	0.120075	0.900800	0.155425
H99	H	0.154775	0.907825	0.151975
C150	C	0.127875	0.970225	0.148750
H100	H	0.093025	0.963250	0.144775
C151	C	0.207125	0.969425	0.178425
H101	H	0.228325	0.962075	0.195650
C152	C	0.041125	0.901125	0.183650
H102	H	0.019825	0.908650	0.200175
C153	C	0.020650	0.880075	0.165650
C154	C	0.051975	0.869250	0.141150
C155	C	0.030500	0.846550	0.120375
O51	O	0.185325	0.912595	0.223225
O52	O	0.063725	0.966730	0.217550
O53	O	0.109225	0.911942	0.249325
O54	O	0.141625	0.970050	0.243550
N27	N	0.031975	0.789275	0.049050
C156	C	0.021950	0.760175	0.003350
C157	C	0.073300	0.750500	0.008425
C158	C	0.104275	0.761350	0.033850
H103	H	0.140050	0.755550	0.037625
H104	H	0.248775	0.877250	0.244450
H105	H	0.029775	0.842175	0.026975
C159	C	0.002875	0.779775	0.023750
C160	C	0.082125	0.780575	0.053425
H106	H	0.103325	0.787925	0.070650
C161	C	0.094500	0.977675	0.238750
C162	C	0.155500	0.903450	0.245375
O55	O	0.188725	0.783270	0.342550
O56	O	0.234225	0.838058	0.374325
H107	H	0.015050	0.994450	0.412625
H108	H	0.236150	0.873125	0.419775
C163	C	0.219500	0.772325	0.363750
Ni14	Ni	0.248700	0.811510	0.334858
N28	N	0.215275	0.838475	0.303775
H109	H	0.000050	0.753450	0.486025
C164	C	0.226925	0.870225	0.261025
C165	C	0.245075	0.849200	0.280425
H110	H	0.218025	0.786750	0.269775
C166	C	0.166125	0.848875	0.308650
H111	H	0.144825	0.841350	0.325175
C167	C	0.145650	0.869925	0.290650
H112	H	0.111150	0.876875	0.294775
C168	C	0.176975	0.880750	0.266150
Ni15	Ni	0.123700	0.938490	0.709858
O57	O	0.060325	0.837405	0.598225
O58	O	0.016625	0.779950	0.618550
N29	N	0.156975	0.960725	0.674050
N30	N	0.090275	0.911525	0.678775
C169	C	0.146950	0.989825	0.628350
H113	H	0.125050	0.996550	0.611025
C170	C	0.198300	0.999500	0.633425
C171	C	0.229275	0.988650	0.658850
C172	C	0.101925	0.879775	0.636025
H114	H	0.123775	0.872750	0.619450
C173	C	0.120075	0.900800	0.655425
H115	H	0.154775	0.907825	0.651975
C174	C	0.127875	0.970225	0.648750
H116	H	0.093025	0.963250	0.644775
C175	C	0.207125	0.969425	0.678425
H117	H	0.228325	0.962075	0.695650
C176	C	0.041125	0.901125	0.683650
H118	H	0.019825	0.908650	0.700175
C177	C	0.020650	0.880075	0.665650
C178	C	0.051975	0.869250	0.641150
C179	C	0.030500	0.846550	0.620375
O59	O	0.185325	0.912595	0.723225
O60	O	0.063725	0.966730	0.717550
O61	O	0.109225	0.911942	0.749325
O62	O	0.141625	0.970050	0.743550
N31	N	0.031975	0.789275	0.549050
C180	C	0.021950	0.760175	0.503350
C181	C	0.073300	0.750500	0.508425
C182	C	0.104275	0.761350	0.533850
H119	H	0.140050	0.755550	0.537625
H120	H	0.248775	0.877250	0.744450
H121	H	0.029775	0.842175	0.526975
C183	C	0.002875	0.779775	0.523750
C184	C	0.082125	0.780575	0.553425
H122	H	0.103325	0.787925	0.570650
C185	C	0.094500	0.977675	0.738750
C186	C	0.155500	0.903450	0.745375
O63	O	0.188725	0.783270	0.842550
O64	O	0.234225	0.838058	0.874325
H123	H	0.015050	0.994450	0.912625
H124	H	0.236150	0.873125	0.919775
C187	C	0.219500	0.772325	0.863750
Ni16	Ni	0.248700	0.811510	0.834858
N32	N	0.215275	0.838475	0.803775
H125	H	0.000050	0.753450	0.986025
C188	C	0.226925	0.870225	0.761025
C189	C	0.245075	0.849200	0.780425
H126	H	0.218025	0.786750	0.769775
C190	C	0.166125	0.848875	0.808650
H127	H	0.144825	0.841350	0.825175
C191	C	0.145650	0.869925	0.790650
H128	H	0.111150	0.876875	0.794775
C192	C	0.176975	0.880750	0.766150
Ni17	Ni	0.373700	0.188490	0.209858
O65	O	0.310325	0.087405	0.098225
O66	O	0.266625	0.029950	0.118550
N33	N	0.406975	0.210725	0.174050
N34	N	0.340275	0.161525	0.178775
C193	C	0.396950	0.239825	0.128350
H129	H	0.375050	0.246550	0.111025
C194	C	0.448300	0.249500	0.133425
C195	C	0.479275	0.238650	0.158850
C196	C	0.351925	0.129775	0.136025
H130	H	0.373775	0.122750	0.119450
C197	C	0.370075	0.150800	0.155425
H131	H	0.404775	0.157825	0.151975
C198	C	0.377875	0.220225	0.148750
H132	H	0.343025	0.213250	0.144775
C199	C	0.457125	0.219425	0.178425
H133	H	0.478325	0.212075	0.195650
C200	C	0.291125	0.151125	0.183650
H134	H	0.269825	0.158650	0.200175
C201	C	0.270650	0.130075	0.165650
C202	C	0.301975	0.119250	0.141150
C203	C	0.280500	0.096550	0.120375
O67	O	0.435325	0.162595	0.223225
O68	O	0.313725	0.216730	0.217550
O69	O	0.359225	0.161942	0.249325
O70	O	0.391625	0.220050	0.243550
N35	N	0.281975	0.039275	0.049050
C204	C	0.271950	0.010175	0.003350
C205	C	0.323300	0.000500	0.008425
C206	C	0.354275	0.011350	0.033850
H135	H	0.390050	0.005550	0.037625
H136	H	0.498775	0.127250	0.244450
H137	H	0.279775	0.092175	0.026975
C207	C	0.252875	0.029775	0.023750
C208	C	0.332125	0.030575	0.053425
H138	H	0.353325	0.037925	0.070650
C209	C	0.344500	0.227675	0.238750
C210	C	0.405500	0.153450	0.245375
O71	O	0.438725	0.033270	0.342550
O72	O	0.484225	0.088057	0.374325
H139	H	0.265050	0.244450	0.412625
H140	H	0.486150	0.123125	0.419775
C211	C	0.469500	0.022325	0.363750
Ni18	Ni	0.498700	0.061510	0.334858
N36	N	0.465275	0.088475	0.303775
H141	H	0.250050	0.003450	0.486025
C212	C	0.476925	0.120225	0.261025
C213	C	0.495075	0.099200	0.280425
H142	H	0.468025	0.036750	0.269775
C214	C	0.416125	0.098875	0.308650
H143	H	0.394825	0.091350	0.325175
C215	C	0.395650	0.119925	0.290650
H144	H	0.361150	0.126875	0.294775
C216	C	0.426975	0.130750	0.266150
Ni19	Ni	0.373700	0.188490	0.709858
O73	O	0.310325	0.087405	0.598225
O74	O	0.266625	0.029950	0.618550
N37	N	0.406975	0.210725	0.674050
N38	N	0.340275	0.161525	0.678775
C217	C	0.396950	0.239825	0.628350
H145	H	0.375050	0.246550	0.611025
C218	C	0.448300	0.249500	0.633425
C219	C	0.479275	0.238650	0.658850
C220	C	0.351925	0.129775	0.636025
H146	H	0.373775	0.122750	0.619450
C221	C	0.370075	0.150800	0.655425
H147	H	0.404775	0.157825	0.651975
C222	C	0.377875	0.220225	0.648750
H148	H	0.343025	0.213250	0.644775
C223	C	0.457125	0.219425	0.678425
H149	H	0.478325	0.212075	0.695650
C224	C	0.291125	0.151125	0.683650
H150	H	0.269825	0.158650	0.700175
C225	C	0.270650	0.130075	0.665650
C226	C	0.301975	0.119250	0.641150
C227	C	0.280500	0.096550	0.620375
O75	O	0.435325	0.162595	0.723225
O76	O	0.313725	0.216730	0.717550
O77	O	0.359225	0.161942	0.749325
O78	O	0.391625	0.220050	0.743550
N39	N	0.281975	0.039275	0.549050
C228	C	0.271950	0.010175	0.503350
C229	C	0.323300	0.000500	0.508425
C230	C	0.354275	0.011350	0.533850
H151	H	0.390050	0.005550	0.537625
H152	H	0.498775	0.127250	0.744450
H153	H	0.279775	0.092175	0.526975
C231	C	0.252875	0.029775	0.523750
C232	C	0.332125	0.030575	0.553425
H154	H	0.353325	0.037925	0.570650
C233	C	0.344500	0.227675	0.738750
C234	C	0.405500	0.153450	0.745375
O79	O	0.438725	0.033270	0.842550
O80	O	0.484225	0.088057	0.874325
H155	H	0.265050	0.244450	0.912625
H156	H	0.486150	0.123125	0.919775
C235	C	0.469500	0.022325	0.863750
Ni20	Ni	0.498700	0.061510	0.834858
N40	N	0.465275	0.088475	0.803775
H157	H	0.250050	0.003450	0.986025
C236	C	0.476925	0.120225	0.761025
C237	C	0.495075	0.099200	0.780425
H158	H	0.468025	0.036750	0.769775
C238	C	0.416125	0.098875	0.808650
H159	H	0.394825	0.091350	0.825175
C239	C	0.395650	0.119925	0.790650
H160	H	0.361150	0.126875	0.794775
C240	C	0.426975	0.130750	0.766150
O81	O	0.438725	0.283270	0.092550
O82	O	0.484225	0.338058	0.124325
H161	H	0.265050	0.494450	0.162625
H162	H	0.486150	0.373125	0.169775
C241	C	0.469500	0.272325	0.113750
Ni21	Ni	0.498700	0.311510	0.084858
N41	N	0.465275	0.338475	0.053775
H163	H	0.250050	0.253450	0.236025
C242	C	0.476925	0.370225	0.011025
C243	C	0.495075	0.349200	0.030425
H164	H	0.468025	0.286750	0.019775
C244	C	0.416125	0.348875	0.058650
H165	H	0.394825	0.341350	0.075175
C245	C	0.395650	0.369925	0.040650
H166	H	0.361150	0.376875	0.044775
C246	C	0.426975	0.380750	0.016150
Ni22	Ni	0.373700	0.438490	0.459858
O83	O	0.310325	0.337405	0.348225
O84	O	0.266625	0.279950	0.368550
N42	N	0.406975	0.460725	0.424050
N43	N	0.340275	0.411525	0.428775
C247	C	0.396950	0.489825	0.378350
H167	H	0.375050	0.496550	0.361025
C248	C	0.448300	0.499500	0.383425
C249	C	0.479275	0.488650	0.408850
C250	C	0.351925	0.379775	0.386025
H168	H	0.373775	0.372750	0.369450
C251	C	0.370075	0.400800	0.405425
H169	H	0.404775	0.407825	0.401975
C252	C	0.377875	0.470225	0.398750
H170	H	0.343025	0.463250	0.394775
C253	C	0.457125	0.469425	0.428425
H171	H	0.478325	0.462075	0.445650
C254	C	0.291125	0.401125	0.433650
H172	H	0.269825	0.408650	0.450175
C255	C	0.270650	0.380075	0.415650
C256	C	0.301975	0.369250	0.391150
C257	C	0.280500	0.346550	0.370375
O85	O	0.435325	0.412595	0.473225
O86	O	0.313725	0.466730	0.467550
O87	O	0.359225	0.411942	0.499325
O88	O	0.391625	0.470050	0.493550
N44	N	0.281975	0.289275	0.299050
C258	C	0.271950	0.260175	0.253350
C259	C	0.323300	0.250500	0.258425
C260	C	0.354275	0.261350	0.283850
H173	H	0.390050	0.255550	0.287625
H174	H	0.498775	0.377250	0.494450
H175	H	0.279775	0.342175	0.276975
C261	C	0.252875	0.279775	0.273750
C262	C	0.332125	0.280575	0.303425
H176	H	0.353325	0.287925	0.320650
C263	C	0.344500	0.477675	0.488750
C264	C	0.405500	0.403450	0.495375
O89	O	0.438725	0.283270	0.592550
O90	O	0.484225	0.338058	0.624325
H177	H	0.265050	0.494450	0.662625
H178	H	0.486150	0.373125	0.669775
C265	C	0.469500	0.272325	0.613750
Ni23	Ni	0.498700	0.311510	0.584858
N45	N	0.465275	0.338475	0.553775
H179	H	0.250050	0.253450	0.736025
C266	C	0.476925	0.370225	0.511025
C267	C	0.495075	0.349200	0.530425
H180	H	0.468025	0.286750	0.519775
C268	C	0.416125	0.348875	0.558650
H181	H	0.394825	0.341350	0.575175
C269	C	0.395650	0.369925	0.540650
H182	H	0.361150	0.376875	0.544775
C270	C	0.426975	0.380750	0.516150
Ni24	Ni	0.373700	0.438490	0.959858
O91	O	0.310325	0.337405	0.848225
O92	O	0.266625	0.279950	0.868550
N46	N	0.406975	0.460725	0.924050
N47	N	0.340275	0.411525	0.928775
C271	C	0.396950	0.489825	0.878350
H183	H	0.375050	0.496550	0.861025
C272	C	0.448300	0.499500	0.883425
C273	C	0.479275	0.488650	0.908850
C274	C	0.351925	0.379775	0.886025
H184	H	0.373775	0.372750	0.869450
C275	C	0.370075	0.400800	0.905425
H185	H	0.404775	0.407825	0.901975
C276	C	0.377875	0.470225	0.898750
H186	H	0.343025	0.463250	0.894775
C277	C	0.457125	0.469425	0.928425
H187	H	0.478325	0.462075	0.945650
C278	C	0.291125	0.401125	0.933650
H188	H	0.269825	0.408650	0.950175
C279	C	0.270650	0.380075	0.915650
C280	C	0.301975	0.369250	0.891150
C281	C	0.280500	0.346550	0.870375
O93	O	0.435325	0.412595	0.973225
O94	O	0.313725	0.466730	0.967550
O95	O	0.359225	0.411942	0.999325
O96	O	0.391625	0.470050	0.993550
N48	N	0.281975	0.289275	0.799050
C282	C	0.271950	0.260175	0.753350
C283	C	0.323300	0.250500	0.758425
C284	C	0.354275	0.261350	0.783850
H189	H	0.390050	0.255550	0.787625
H190	H	0.498775	0.377250	0.994450
H191	H	0.279775	0.342175	0.776975
C285	C	0.252875	0.279775	0.773750
C286	C	0.332125	0.280575	0.803425
H192	H	0.353325	0.287925	0.820650
C287	C	0.344500	0.477675	0.988750
C288	C	0.405500	0.403450	0.995375
Ni25	Ni	0.373700	0.688490	0.209858
O97	O	0.310325	0.587405	0.098225
O98	O	0.266625	0.529950	0.118550
N49	N	0.406975	0.710725	0.174050
N50	N	0.340275	0.661525	0.178775
C289	C	0.396950	0.739825	0.128350
H193	H	0.375050	0.746550	0.111025
C290	C	0.448300	0.749500	0.133425
C291	C	0.479275	0.738650	0.158850
C292	C	0.351925	0.629775	0.136025
H194	H	0.373775	0.622750	0.119450
C293	C	0.370075	0.650800	0.155425
H195	H	0.404775	0.657825	0.151975
C294	C	0.377875	0.720225	0.148750
H196	H	0.343025	0.713250	0.144775
C295	C	0.457125	0.719425	0.178425
H197	H	0.478325	0.712075	0.195650
C296	C	0.291125	0.651125	0.183650
H198	H	0.269825	0.658650	0.200175
C297	C	0.270650	0.630075	0.165650
C298	C	0.301975	0.619250	0.141150
C299	C	0.280500	0.596550	0.120375
O99	O	0.435325	0.662595	0.223225
O100	O	0.313725	0.716730	0.217550
O101	O	0.359225	0.661942	0.249325
O102	O	0.391625	0.720050	0.243550
N51	N	0.281975	0.539275	0.049050
C300	C	0.271950	0.510175	0.003350
C301	C	0.323300	0.500500	0.008425
C302	C	0.354275	0.511350	0.033850
H199	H	0.390050	0.505550	0.037625
H200	H	0.498775	0.627250	0.244450
H201	H	0.279775	0.592175	0.026975
C303	C	0.252875	0.529775	0.023750
C304	C	0.332125	0.530575	0.053425
H202	H	0.353325	0.537925	0.070650
C305	C	0.344500	0.727675	0.238750
C306	C	0.405500	0.653450	0.245375
O103	O	0.438725	0.533270	0.342550
O104	O	0.484225	0.588058	0.374325
H203	H	0.265050	0.744450	0.412625
H204	H	0.486150	0.623125	0.419775
C307	C	0.469500	0.522325	0.363750
Ni26	Ni	0.498700	0.561510	0.334858
N52	N	0.465275	0.588475	0.303775
H205	H	0.250050	0.503450	0.486025
C308	C	0.476925	0.620225	0.261025
C309	C	0.495075	0.599200	0.280425
H206	H	0.468025	0.536750	0.269775
C310	C	0.416125	0.598875	0.308650
H207	H	0.394825	0.591350	0.325175
C311	C	0.395650	0.619925	0.290650
H208	H	0.361150	0.626875	0.294775
C312	C	0.426975	0.630750	0.266150
Ni27	Ni	0.373700	0.688490	0.709858
O105	O	0.310325	0.587405	0.598225
O106	O	0.266625	0.529950	0.618550
N53	N	0.406975	0.710725	0.674050
N54	N	0.340275	0.661525	0.678775
C313	C	0.396950	0.739825	0.628350
H209	H	0.375050	0.746550	0.611025
C314	C	0.448300	0.749500	0.633425
C315	C	0.479275	0.738650	0.658850
C316	C	0.351925	0.629775	0.636025
H210	H	0.373775	0.622750	0.619450
C317	C	0.370075	0.650800	0.655425
H211	H	0.404775	0.657825	0.651975
C318	C	0.377875	0.720225	0.648750
H212	H	0.343025	0.713250	0.644775
C319	C	0.457125	0.719425	0.678425
H213	H	0.478325	0.712075	0.695650
C320	C	0.291125	0.651125	0.683650
H214	H	0.269825	0.658650	0.700175
C321	C	0.270650	0.630075	0.665650
C322	C	0.301975	0.619250	0.641150
C323	C	0.280500	0.596550	0.620375
O107	O	0.435325	0.662595	0.723225
O108	O	0.313725	0.716730	0.717550
O109	O	0.359225	0.661942	0.749325
O110	O	0.391625	0.720050	0.743550
N55	N	0.281975	0.539275	0.549050
C324	C	0.271950	0.510175	0.503350
C325	C	0.323300	0.500500	0.508425
C326	C	0.354275	0.511350	0.533850
H215	H	0.390050	0.505550	0.537625
H216	H	0.498775	0.627250	0.744450
H217	H	0.279775	0.592175	0.526975
C327	C	0.252875	0.529775	0.523750
C328	C	0.332125	0.530575	0.553425
H218	H	0.353325	0.537925	0.570650
C329	C	0.344500	0.727675	0.738750
C330	C	0.405500	0.653450	0.745375
O111	O	0.438725	0.533270	0.842550
O112	O	0.484225	0.588058	0.874325
H219	H	0.265050	0.744450	0.912625
H220	H	0.486150	0.623125	0.919775
C331	C	0.469500	0.522325	0.863750
Ni28	Ni	0.498700	0.561510	0.834858
N56	N	0.465275	0.588475	0.803775
H221	H	0.250050	0.503450	0.986025
C332	C	0.476925	0.620225	0.761025
C333	C	0.495075	0.599200	0.780425
H222	H	0.468025	0.536750	0.769775
C334	C	0.416125	0.598875	0.808650
H223	H	0.394825	0.591350	0.825175
C335	C	0.395650	0.619925	0.790650
H224	H	0.361150	0.626875	0.794775
C336	C	0.426975	0.630750	0.766150
O113	O	0.438725	0.783270	0.092550
O114	O	0.484225	0.838058	0.124325
H225	H	0.265050	0.994450	0.162625
H226	H	0.486150	0.873125	0.169775
C337	C	0.469500	0.772325	0.113750
Ni29	Ni	0.498700	0.811510	0.084858
N57	N	0.465275	0.838475	0.053775
H227	H	0.250050	0.753450	0.236025
C338	C	0.476925	0.870225	0.011025
C339	C	0.495075	0.849200	0.030425
H228	H	0.468025	0.786750	0.019775
C340	C	0.416125	0.848875	0.058650
H229	H	0.394825	0.841350	0.075175
C341	C	0.395650	0.869925	0.040650
H230	H	0.361150	0.876875	0.044775
C342	C	0.426975	0.880750	0.016150
Ni30	Ni	0.373700	0.938490	0.459858
O115	O	0.310325	0.837405	0.348225
O116	O	0.266625	0.779950	0.368550
N58	N	0.406975	0.960725	0.424050
N59	N	0.340275	0.911525	0.428775
C343	C	0.396950	0.989825	0.378350
H231	H	0.375050	0.996550	0.361025
C344	C	0.448300	0.999500	0.383425
C345	C	0.479275	0.988650	0.408850
C346	C	0.351925	0.879775	0.386025
H232	H	0.373775	0.872750	0.369450
C347	C	0.370075	0.900800	0.405425
H233	H	0.404775	0.907825	0.401975
C348	C	0.377875	0.970225	0.398750
H234	H	0.343025	0.963250	0.394775
C349	C	0.457125	0.969425	0.428425
H235	H	0.478325	0.962075	0.445650
C350	C	0.291125	0.901125	0.433650
H236	H	0.269825	0.908650	0.450175
C351	C	0.270650	0.880075	0.415650
C352	C	0.301975	0.869250	0.391150
C353	C	0.280500	0.846550	0.370375
O117	O	0.435325	0.912595	0.473225
O118	O	0.313725	0.966730	0.467550
O119	O	0.359225	0.911942	0.499325
O120	O	0.391625	0.970050	0.493550
N60	N	0.281975	0.789275	0.299050
C354	C	0.271950	0.760175	0.253350
C355	C	0.323300	0.750500	0.258425
C356	C	0.354275	0.761350	0.283850
H237	H	0.390050	0.755550	0.287625
H238	H	0.498775	0.877250	0.494450
H239	H	0.279775	0.842175	0.276975
C357	C	0.252875	0.779775	0.273750
C358	C	0.332125	0.780575	0.303425
H240	H	0.353325	0.787925	0.320650
C359	C	0.344500	0.977675	0.488750
C360	C	0.405500	0.903450	0.495375
O121	O	0.438725	0.783270	0.592550
O122	O	0.484225	0.838058	0.624325
H241	H	0.265050	0.994450	0.662625
H242	H	0.486150	0.873125	0.669775
C361	C	0.469500	0.772325	0.613750
Ni31	Ni	0.498700	0.811510	0.584858
N61	N	0.465275	0.838475	0.553775
H243	H	0.250050	0.753450	0.736025
C362	C	0.476925	0.870225	0.511025
C363	C	0.495075	0.849200	0.530425
H244	H	0.468025	0.786750	0.519775
C364	C	0.416125	0.848875	0.558650
H245	H	0.394825	0.841350	0.575175
C365	C	0.395650	0.869925	0.540650
H246	H	0.361150	0.876875	0.544775
C366	C	0.426975	0.880750	0.516150
Ni32	Ni	0.373700	0.938490	0.959858
O123	O	0.310325	0.837405	0.848225
O124	O	0.266625	0.779950	0.868550
N62	N	0.406975	0.960725	0.924050
N63	N	0.340275	0.911525	0.928775
C367	C	0.396950	0.989825	0.878350
H247	H	0.375050	0.996550	0.861025
C368	C	0.448300	0.999500	0.883425
C369	C	0.479275	0.988650	0.908850
C370	C	0.351925	0.879775	0.886025
H248	H	0.373775	0.872750	0.869450
C371	C	0.370075	0.900800	0.905425
H249	H	0.404775	0.907825	0.901975
C372	C	0.377875	0.970225	0.898750
H250	H	0.343025	0.963250	0.894775
C373	C	0.457125	0.969425	0.928425
H251	H	0.478325	0.962075	0.945650
C374	C	0.291125	0.901125	0.933650
H252	H	0.269825	0.908650	0.950175
C375	C	0.270650	0.880075	0.915650
C376	C	0.301975	0.869250	0.891150
C377	C	0.280500	0.846550	0.870375
O125	O	0.435325	0.912595	0.973225
O126	O	0.313725	0.966730	0.967550
O127	O	0.359225	0.911942	0.999325
O128	O	0.391625	0.970050	0.993550
N64	N	0.281975	0.789275	0.799050
C378	C	0.271950	0.760175	0.753350
C379	C	0.323300	0.750500	0.758425
C380	C	0.354275	0.761350	0.783850
H253	H	0.390050	0.755550	0.787625
H254	H	0.498775	0.877250	0.994450
H255	H	0.279775	0.842175	0.776975
C381	C	0.252875	0.779775	0.773750
C382	C	0.332125	0.780575	0.803425
H256	H	0.353325	0.787925	0.820650
C383	C	0.344500	0.977675	0.988750
C384	C	0.405500	0.903450	0.995375
O129	O	0.688725	0.033270	0.092550
O130	O	0.734225	0.088057	0.124325
H257	H	0.515050	0.244450	0.162625
H258	H	0.736150	0.123125	0.169775
C385	C	0.719500	0.022325	0.113750
Ni33	Ni	0.748700	0.061510	0.084858
N65	N	0.715275	0.088475	0.053775
H259	H	0.500050	0.003450	0.236025
C386	C	0.726925	0.120225	0.011025
C387	C	0.745075	0.099200	0.030425
H260	H	0.718025	0.036750	0.019775
C388	C	0.666125	0.098875	0.058650
H261	H	0.644825	0.091350	0.075175
C389	C	0.645650	0.119925	0.040650
H262	H	0.611150	0.126875	0.044775
C390	C	0.676975	0.130750	0.016150
Ni34	Ni	0.623700	0.188490	0.459858
O131	O	0.560325	0.087405	0.348225
O132	O	0.516625	0.029950	0.368550
N66	N	0.656975	0.210725	0.424050
N67	N	0.590275	0.161525	0.428775
C391	C	0.646950	0.239825	0.378350
H263	H	0.625050	0.246550	0.361025
C392	C	0.698300	0.249500	0.383425
C393	C	0.729275	0.238650	0.408850
C394	C	0.601925	0.129775	0.386025
H264	H	0.623775	0.122750	0.369450
C395	C	0.620075	0.150800	0.405425
H265	H	0.654775	0.157825	0.401975
C396	C	0.627875	0.220225	0.398750
H266	H	0.593025	0.213250	0.394775
C397	C	0.707125	0.219425	0.428425
H267	H	0.728325	0.212075	0.445650
C398	C	0.541125	0.151125	0.433650
H268	H	0.519825	0.158650	0.450175
C399	C	0.520650	0.130075	0.415650
C400	C	0.551975	0.119250	0.391150
C401	C	0.530500	0.096550	0.370375
O133	O	0.685325	0.162595	0.473225
O134	O	0.563725	0.216730	0.467550
O135	O	0.609225	0.161942	0.499325
O136	O	0.641625	0.220050	0.493550
N68	N	0.531975	0.039275	0.299050
C402	C	0.521950	0.010175	0.253350
C403	C	0.573300	0.000500	0.258425
C404	C	0.604275	0.011350	0.283850
H269	H	0.640050	0.005550	0.287625
H270	H	0.748775	0.127250	0.494450
H271	H	0.529775	0.092175	0.276975
C405	C	0.502875	0.029775	0.273750
C406	C	0.582125	0.030575	0.303425
H272	H	0.603325	0.037925	0.320650
C407	C	0.594500	0.227675	0.488750
C408	C	0.655500	0.153450	0.495375
O137	O	0.688725	0.033270	0.592550
O138	O	0.734225	0.088057	0.624325
H273	H	0.515050	0.244450	0.662625
H274	H	0.736150	0.123125	0.669775
C409	C	0.719500	0.022325	0.613750
Ni35	Ni	0.748700	0.061510	0.584858
N69	N	0.715275	0.088475	0.553775
H275	H	0.500050	0.003450	0.736025
C410	C	0.726925	0.120225	0.511025
C411	C	0.745075	0.099200	0.530425
H276	H	0.718025	0.036750	0.519775
C412	C	0.666125	0.098875	0.558650
H277	H	0.644825	0.091350	0.575175
C413	C	0.645650	0.119925	0.540650
H278	H	0.611150	0.126875	0.544775
C414	C	0.676975	0.130750	0.516150
Ni36	Ni	0.623700	0.188490	0.959858
O139	O	0.560325	0.087405	0.848225
O140	O	0.516625	0.029950	0.868550
N70	N	0.656975	0.210725	0.924050
N71	N	0.590275	0.161525	0.928775
C415	C	0.646950	0.239825	0.878350
H279	H	0.625050	0.246550	0.861025
C416	C	0.698300	0.249500	0.883425
C417	C	0.729275	0.238650	0.908850
C418	C	0.601925	0.129775	0.886025
H280	H	0.623775	0.122750	0.869450
C419	C	0.620075	0.150800	0.905425
H281	H	0.654775	0.157825	0.901975
C420	C	0.627875	0.220225	0.898750
H282	H	0.593025	0.213250	0.894775
C421	C	0.707125	0.219425	0.928425
H283	H	0.728325	0.212075	0.945650
C422	C	0.541125	0.151125	0.933650
H284	H	0.519825	0.158650	0.950175
C423	C	0.520650	0.130075	0.915650
C424	C	0.551975	0.119250	0.891150
C425	C	0.530500	0.096550	0.870375
O141	O	0.685325	0.162595	0.973225
O142	O	0.563725	0.216730	0.967550
O143	O	0.609225	0.161942	0.999325
O144	O	0.641625	0.220050	0.993550
N72	N	0.531975	0.039275	0.799050
C426	C	0.521950	0.010175	0.753350
C427	C	0.573300	0.000500	0.758425
C428	C	0.604275	0.011350	0.783850
H285	H	0.640050	0.005550	0.787625
H286	H	0.748775	0.127250	0.994450
H287	H	0.529775	0.092175	0.776975
C429	C	0.502875	0.029775	0.773750
C430	C	0.582125	0.030575	0.803425
H288	H	0.603325	0.037925	0.820650
C431	C	0.594500	0.227675	0.988750
C432	C	0.655500	0.153450	0.995375
Ni37	Ni	0.623700	0.438490	0.209858
O145	O	0.560325	0.337405	0.098225
O146	O	0.516625	0.279950	0.118550
N73	N	0.656975	0.460725	0.174050
N74	N	0.590275	0.411525	0.178775
C433	C	0.646950	0.489825	0.128350
H289	H	0.625050	0.496550	0.111025
C434	C	0.698300	0.499500	0.133425
C435	C	0.729275	0.488650	0.158850
C436	C	0.601925	0.379775	0.136025
H290	H	0.623775	0.372750	0.119450
C437	C	0.620075	0.400800	0.155425
H291	H	0.654775	0.407825	0.151975
C438	C	0.627875	0.470225	0.148750
H292	H	0.593025	0.463250	0.144775
C439	C	0.707125	0.469425	0.178425
H293	H	0.728325	0.462075	0.195650
C440	C	0.541125	0.401125	0.183650
H294	H	0.519825	0.408650	0.200175
C441	C	0.520650	0.380075	0.165650
C442	C	0.551975	0.369250	0.141150
C443	C	0.530500	0.346550	0.120375
O147	O	0.685325	0.412595	0.223225
O148	O	0.563725	0.466730	0.217550
O149	O	0.609225	0.411942	0.249325
O150	O	0.641625	0.470050	0.243550
N75	N	0.531975	0.289275	0.049050
C444	C	0.521950	0.260175	0.003350
C445	C	0.573300	0.250500	0.008425
C446	C	0.604275	0.261350	0.033850
H295	H	0.640050	0.255550	0.037625
H296	H	0.748775	0.377250	0.244450
H297	H	0.529775	0.342175	0.026975
C447	C	0.502875	0.279775	0.023750
C448	C	0.582125	0.280575	0.053425
H298	H	0.603325	0.287925	0.070650
C449	C	0.594500	0.477675	0.238750
C450	C	0.655500	0.403450	0.245375
O151	O	0.688725	0.283270	0.342550
O152	O	0.734225	0.338058	0.374325
H299	H	0.515050	0.494450	0.412625
H300	H	0.736150	0.373125	0.419775
C451	C	0.719500	0.272325	0.363750
Ni38	Ni	0.748700	0.311510	0.334858
N76	N	0.715275	0.338475	0.303775
H301	H	0.500050	0.253450	0.486025
C452	C	0.726925	0.370225	0.261025
C453	C	0.745075	0.349200	0.280425
H302	H	0.718025	0.286750	0.269775
C454	C	0.666125	0.348875	0.308650
H303	H	0.644825	0.341350	0.325175
C455	C	0.645650	0.369925	0.290650
H304	H	0.611150	0.376875	0.294775
C456	C	0.676975	0.380750	0.266150
Ni39	Ni	0.623700	0.438490	0.709858
O153	O	0.560325	0.337405	0.598225
O154	O	0.516625	0.279950	0.618550
N77	N	0.656975	0.460725	0.674050
N78	N	0.590275	0.411525	0.678775
C457	C	0.646950	0.489825	0.628350
H305	H	0.625050	0.496550	0.611025
C458	C	0.698300	0.499500	0.633425
C459	C	0.729275	0.488650	0.658850
C460	C	0.601925	0.379775	0.636025
H306	H	0.623775	0.372750	0.619450
C461	C	0.620075	0.400800	0.655425
H307	H	0.654775	0.407825	0.651975
C462	C	0.627875	0.470225	0.648750
H308	H	0.593025	0.463250	0.644775
C463	C	0.707125	0.469425	0.678425
H309	H	0.728325	0.462075	0.695650
C464	C	0.541125	0.401125	0.683650
H310	H	0.519825	0.408650	0.700175
C465	C	0.520650	0.380075	0.665650
C466	C	0.551975	0.369250	0.641150
C467	C	0.530500	0.346550	0.620375
O155	O	0.685325	0.412595	0.723225
O156	O	0.563725	0.466730	0.717550
O157	O	0.609225	0.411942	0.749325
O158	O	0.641625	0.470050	0.743550
N79	N	0.531975	0.289275	0.549050
C468	C	0.521950	0.260175	0.503350
C469	C	0.573300	0.250500	0.508425
C470	C	0.604275	0.261350	0.533850
H311	H	0.640050	0.255550	0.537625
H312	H	0.748775	0.377250	0.744450
H313	H	0.529775	0.342175	0.526975
C471	C	0.502875	0.279775	0.523750
C472	C	0.582125	0.280575	0.553425
H314	H	0.603325	0.287925	0.570650
C473	C	0.594500	0.477675	0.738750
C474	C	0.655500	0.403450	0.745375
O159	O	0.688725	0.283270	0.842550
O160	O	0.734225	0.338058	0.874325
H315	H	0.515050	0.494450	0.912625
H316	H	0.736150	0.373125	0.919775
C475	C	0.719500	0.272325	0.863750
Ni40	Ni	0.748700	0.311510	0.834858
N80	N	0.715275	0.338475	0.803775
H317	H	0.500050	0.253450	0.986025
C476	C	0.726925	0.370225	0.761025
C477	C	0.745075	0.349200	0.780425
H318	H	0.718025	0.286750	0.769775
C478	C	0.666125	0.348875	0.808650
H319	H	0.644825	0.341350	0.825175
C479	C	0.645650	0.369925	0.790650
H320	H	0.611150	0.376875	0.794775
C480	C	0.676975	0.380750	0.766150
O161	O	0.688725	0.533270	0.092550
O162	O	0.734225	0.588058	0.124325
H321	H	0.515050	0.744450	0.162625
H322	H	0.736150	0.623125	0.169775
C481	C	0.719500	0.522325	0.113750
Ni41	Ni	0.748700	0.561510	0.084858
N81	N	0.715275	0.588475	0.053775
H323	H	0.500050	0.503450	0.236025
C482	C	0.726925	0.620225	0.011025
C483	C	0.745075	0.599200	0.030425
H324	H	0.718025	0.536750	0.019775
C484	C	0.666125	0.598875	0.058650
H325	H	0.644825	0.591350	0.075175
C485	C	0.645650	0.619925	0.040650
H326	H	0.611150	0.626875	0.044775
C486	C	0.676975	0.630750	0.016150
Ni42	Ni	0.623700	0.688490	0.459858
O163	O	0.560325	0.587405	0.348225
O164	O	0.516625	0.529950	0.368550
N82	N	0.656975	0.710725	0.424050
N83	N	0.590275	0.661525	0.428775
C487	C	0.646950	0.739825	0.378350
H327	H	0.625050	0.746550	0.361025
C488	C	0.698300	0.749500	0.383425
C489	C	0.729275	0.738650	0.408850
C490	C	0.601925	0.629775	0.386025
H328	H	0.623775	0.622750	0.369450
C491	C	0.620075	0.650800	0.405425
H329	H	0.654775	0.657825	0.401975
C492	C	0.627875	0.720225	0.398750
H330	H	0.593025	0.713250	0.394775
C493	C	0.707125	0.719425	0.428425
H331	H	0.728325	0.712075	0.445650
C494	C	0.541125	0.651125	0.433650
H332	H	0.519825	0.658650	0.450175
C495	C	0.520650	0.630075	0.415650
C496	C	0.551975	0.619250	0.391150
C497	C	0.530500	0.596550	0.370375
O165	O	0.685325	0.662595	0.473225
O166	O	0.563725	0.716730	0.467550
O167	O	0.609225	0.661942	0.499325
O168	O	0.641625	0.720050	0.493550
N84	N	0.531975	0.539275	0.299050
C498	C	0.521950	0.510175	0.253350
C499	C	0.573300	0.500500	0.258425
C500	C	0.604275	0.511350	0.283850
H333	H	0.640050	0.505550	0.287625
H334	H	0.748775	0.627250	0.494450
H335	H	0.529775	0.592175	0.276975
C501	C	0.502875	0.529775	0.273750
C502	C	0.582125	0.530575	0.303425
H336	H	0.603325	0.537925	0.320650
C503	C	0.594500	0.727675	0.488750
C504	C	0.655500	0.653450	0.495375
O169	O	0.688725	0.533270	0.592550
O170	O	0.734225	0.588058	0.624325
H337	H	0.515050	0.744450	0.662625
H338	H	0.736150	0.623125	0.669775
C505	C	0.719500	0.522325	0.613750
Ni43	Ni	0.748700	0.561510	0.584858
N85	N	0.715275	0.588475	0.553775
H339	H	0.500050	0.503450	0.736025
C506	C	0.726925	0.620225	0.511025
C507	C	0.745075	0.599200	0.530425
H340	H	0.718025	0.536750	0.519775
C508	C	0.666125	0.598875	0.558650
H341	H	0.644825	0.591350	0.575175
C509	C	0.645650	0.619925	0.540650
H342	H	0.611150	0.626875	0.544775
C510	C	0.676975	0.630750	0.516150
Ni44	Ni	0.623700	0.688490	0.959858
O171	O	0.560325	0.587405	0.848225
O172	O	0.516625	0.529950	0.868550
N86	N	0.656975	0.710725	0.924050
N87	N	0.590275	0.661525	0.928775
C511	C	0.646950	0.739825	0.878350
H343	H	0.625050	0.746550	0.861025
C512	C	0.698300	0.749500	0.883425
C513	C	0.729275	0.738650	0.908850
C514	C	0.601925	0.629775	0.886025
H344	H	0.623775	0.622750	0.869450
C515	C	0.620075	0.650800	0.905425
H345	H	0.654775	0.657825	0.901975
C516	C	0.627875	0.720225	0.898750
H346	H	0.593025	0.713250	0.894775
C517	C	0.707125	0.719425	0.928425
H347	H	0.728325	0.712075	0.945650
C518	C	0.541125	0.651125	0.933650
H348	H	0.519825	0.658650	0.950175
C519	C	0.520650	0.630075	0.915650
C520	C	0.551975	0.619250	0.891150
C521	C	0.530500	0.596550	0.870375
O173	O	0.685325	0.662595	0.973225
O174	O	0.563725	0.716730	0.967550
O175	O	0.609225	0.661942	0.999325
O176	O	0.641625	0.720050	0.993550
N88	N	0.531975	0.539275	0.799050
C522	C	0.521950	0.510175	0.753350
C523	C	0.573300	0.500500	0.758425
C524	C	0.604275	0.511350	0.783850
H349	H	0.640050	0.505550	0.787625
H350	H	0.748775	0.627250	0.994450
H351	H	0.529775	0.592175	0.776975
C525	C	0.502875	0.529775	0.773750
C526	C	0.582125	0.530575	0.803425
H352	H	0.603325	0.537925	0.820650
C527	C	0.594500	0.727675	0.988750
C528	C	0.655500	0.653450	0.995375
Ni45	Ni	0.623700	0.938490	0.209858
O177	O	0.560325	0.837405	0.098225
O178	O	0.516625	0.779950	0.118550
N89	N	0.656975	0.960725	0.174050
N90	N	0.590275	0.911525	0.178775
C529	C	0.646950	0.989825	0.128350
H353	H	0.625050	0.996550	0.111025
C530	C	0.698300	0.999500	0.133425
C531	C	0.729275	0.988650	0.158850
C532	C	0.601925	0.879775	0.136025
H354	H	0.623775	0.872750	0.119450
C533	C	0.620075	0.900800	0.155425
H355	H	0.654775	0.907825	0.151975
C534	C	0.627875	0.970225	0.148750
H356	H	0.593025	0.963250	0.144775
C535	C	0.707125	0.969425	0.178425
H357	H	0.728325	0.962075	0.195650
C536	C	0.541125	0.901125	0.183650
H358	H	0.519825	0.908650	0.200175
C537	C	0.520650	0.880075	0.165650
C538	C	0.551975	0.869250	0.141150
C539	C	0.530500	0.846550	0.120375
O179	O	0.685325	0.912595	0.223225
O180	O	0.563725	0.966730	0.217550
O181	O	0.609225	0.911942	0.249325
O182	O	0.641625	0.970050	0.243550
N91	N	0.531975	0.789275	0.049050
C540	C	0.521950	0.760175	0.003350
C541	C	0.573300	0.750500	0.008425
C542	C	0.604275	0.761350	0.033850
H359	H	0.640050	0.755550	0.037625
H360	H	0.748775	0.877250	0.244450
H361	H	0.529775	0.842175	0.026975
C543	C	0.502875	0.779775	0.023750
C544	C	0.582125	0.780575	0.053425
H362	H	0.603325	0.787925	0.070650
C545	C	0.594500	0.977675	0.238750
C546	C	0.655500	0.903450	0.245375
O183	O	0.688725	0.783270	0.342550
O184	O	0.734225	0.838058	0.374325
H363	H	0.515050	0.994450	0.412625
H364	H	0.736150	0.873125	0.419775
C547	C	0.719500	0.772325	0.363750
Ni46	Ni	0.748700	0.811510	0.334858
N92	N	0.715275	0.838475	0.303775
H365	H	0.500050	0.753450	0.486025
C548	C	0.726925	0.870225	0.261025
C549	C	0.745075	0.849200	0.280425
H366	H	0.718025	0.786750	0.269775
C550	C	0.666125	0.848875	0.308650
H367	H	0.644825	0.841350	0.325175
C551	C	0.645650	0.869925	0.290650
H368	H	0.611150	0.876875	0.294775
C552	C	0.676975	0.880750	0.266150
Ni47	Ni	0.623700	0.938490	0.709858
O185	O	0.560325	0.837405	0.598225
O186	O	0.516625	0.779950	0.618550
N93	N	0.656975	0.960725	0.674050
N94	N	0.590275	0.911525	0.678775
C553	C	0.646950	0.989825	0.628350
H369	H	0.625050	0.996550	0.611025
C554	C	0.698300	0.999500	0.633425
C555	C	0.729275	0.988650	0.658850
C556	C	0.601925	0.879775	0.636025
H370	H	0.623775	0.872750	0.619450
C557	C	0.620075	0.900800	0.655425
H371	H	0.654775	0.907825	0.651975
C558	C	0.627875	0.970225	0.648750
H372	H	0.593025	0.963250	0.644775
C559	C	0.707125	0.969425	0.678425
H373	H	0.728325	0.962075	0.695650
C560	C	0.541125	0.901125	0.683650
H374	H	0.519825	0.908650	0.700175
C561	C	0.520650	0.880075	0.665650
C562	C	0.551975	0.869250	0.641150
C563	C	0.530500	0.846550	0.620375
O187	O	0.685325	0.912595	0.723225
O188	O	0.563725	0.966730	0.717550
O189	O	0.609225	0.911942	0.749325
O190	O	0.641625	0.970050	0.743550
N95	N	0.531975	0.789275	0.549050
C564	C	0.521950	0.760175	0.503350
C565	C	0.573300	0.750500	0.508425
C566	C	0.604275	0.761350	0.533850
H375	H	0.640050	0.755550	0.537625
H376	H	0.748775	0.877250	0.744450
H377	H	0.529775	0.842175	0.526975
C567	C	0.502875	0.779775	0.523750
C568	C	0.582125	0.780575	0.553425
H378	H	0.603325	0.787925	0.570650
C569	C	0.594500	0.977675	0.738750
C570	C	0.655500	0.903450	0.745375
O191	O	0.688725	0.783270	0.842550
O192	O	0.734225	0.838058	0.874325
H379	H	0.515050	0.994450	0.912625
H380	H	0.736150	0.873125	0.919775
C571	C	0.719500	0.772325	0.863750
Ni48	Ni	0.748700	0.811510	0.834858
N96	N	0.715275	0.838475	0.803775
H381	H	0.500050	0.753450	0.986025
C572	C	0.726925	0.870225	0.761025
C573	C	0.745075	0.849200	0.780425
H382	H	0.718025	0.786750	0.769775
C574	C	0.666125	0.848875	0.808650
H383	H	0.644825	0.841350	0.825175
C575	C	0.645650	0.869925	0.790650
H384	H	0.611150	0.876875	0.794775
C576	C	0.676975	0.880750	0.766150
Ni49	Ni	0.873700	0.188490	0.209858
O193	O	0.810325	0.087405	0.098225
O194	O	0.766625	0.029950	0.118550
N97	N	0.906975	0.210725	0.174050
N98	N	0.840275	0.161525	0.178775
C577	C	0.896950	0.239825	0.128350
H385	H	0.875050	0.246550	0.111025
C578	C	0.948300	0.249500	0.133425
C579	C	0.979275	0.238650	0.158850
C580	C	0.851925	0.129775	0.136025
H386	H	0.873775	0.122750	0.119450
C581	C	0.870075	0.150800	0.155425
H387	H	0.904775	0.157825	0.151975
C582	C	0.877875	0.220225	0.148750
H388	H	0.843025	0.213250	0.144775
C583	C	0.957125	0.219425	0.178425
H389	H	0.978325	0.212075	0.195650
C584	C	0.791125	0.151125	0.183650
H390	H	0.769825	0.158650	0.200175
C585	C	0.770650	0.130075	0.165650
C586	C	0.801975	0.119250	0.141150
C587	C	0.780500	0.096550	0.120375
O195	O	0.935325	0.162595	0.223225
O196	O	0.813725	0.216730	0.217550
O197	O	0.859225	0.161942	0.249325
O198	O	0.891625	0.220050	0.243550
N99	N	0.781975	0.039275	0.049050
C588	C	0.771950	0.010175	0.003350
C589	C	0.823300	0.000500	0.008425
C590	C	0.854275	0.011350	0.033850
H391	H	0.890050	0.005550	0.037625
H392	H	0.998775	0.127250	0.244450
H393	H	0.779775	0.092175	0.026975
C591	C	0.752875	0.029775	0.023750
C592	C	0.832125	0.030575	0.053425
H394	H	0.853325	0.037925	0.070650
C593	C	0.844500	0.227675	0.238750
C594	C	0.905500	0.153450	0.245375
O199	O	0.938725	0.033270	0.342550
O200	O	0.984225	0.088057	0.374325
H395	H	0.765050	0.244450	0.412625
H396	H	0.986150	0.123125	0.419775
C595	C	0.969500	0.022325	0.363750
Ni50	Ni	0.998700	0.061510	0.334858
N100	N	0.965275	0.088475	0.303775
H397	H	0.750050	0.003450	0.486025
C596	C	0.976925	0.120225	0.261025
C597	C	0.995075	0.099200	0.280425
H398	H	0.968025	0.036750	0.269775
C598	C	0.916125	0.098875	0.308650
H399	H	0.894825	0.091350	0.325175
C599	C	0.895650	0.119925	0.290650
H400	H	0.861150	0.126875	0.294775
C600	C	0.926975	0.130750	0.266150
Ni51	Ni	0.873700	0.188490	0.709858
O201	O	0.810325	0.087405	0.598225
O202	O	0.766625	0.029950	0.618550
N101	N	0.906975	0.210725	0.674050
N102	N	0.840275	0.161525	0.678775
C601	C	0.896950	0.239825	0.628350
H401	H	0.875050	0.246550	0.611025
C602	C	0.948300	0.249500	0.633425
C603	C	0.979275	0.238650	0.658850
C604	C	0.851925	0.129775	0.636025
H402	H	0.873775	0.122750	0.619450
C605	C	0.870075	0.150800	0.655425
H403	H	0.904775	0.157825	0.651975
C606	C	0.877875	0.220225	0.648750
H404	H	0.843025	0.213250	0.644775
C607	C	0.957125	0.219425	0.678425
H405	H	0.978325	0.212075	0.695650
C608	C	0.791125	0.151125	0.683650
H406	H	0.769825	0.158650	0.700175
C609	C	0.770650	0.130075	0.665650
C610	C	0.801975	0.119250	0.641150
C611	C	0.780500	0.096550	0.620375
O203	O	0.935325	0.162595	0.723225
O204	O	0.813725	0.216730	0.717550
O205	O	0.859225	0.161942	0.749325
O206	O	0.891625	0.220050	0.743550
N103	N	0.781975	0.039275	0.549050
C612	C	0.771950	0.010175	0.503350
C613	C	0.823300	0.000500	0.508425
C614	C	0.854275	0.011350	0.533850
H407	H	0.890050	0.005550	0.537625
H408	H	0.998775	0.127250	0.744450
H409	H	0.779775	0.092175	0.526975
C615	C	0.752875	0.029775	0.523750
C616	C	0.832125	0.030575	0.553425
H410	H	0.853325	0.037925	0.570650
C617	C	0.844500	0.227675	0.738750
C618	C	0.905500	0.153450	0.745375
O207	O	0.938725	0.033270	0.842550
O208	O	0.984225	0.088057	0.874325
H411	H	0.765050	0.244450	0.912625
H412	H	0.986150	0.123125	0.919775
C619	C	0.969500	0.022325	0.863750
Ni52	Ni	0.998700	0.061510	0.834858
N104	N	0.965275	0.088475	0.803775
H413	H	0.750050	0.003450	0.986025
C620	C	0.976925	0.120225	0.761025
C621	C	0.995075	0.099200	0.780425
H414	H	0.968025	0.036750	0.769775
C622	C	0.916125	0.098875	0.808650
H415	H	0.894825	0.091350	0.825175
C623	C	0.895650	0.119925	0.790650
H416	H	0.861150	0.126875	0.794775
C624	C	0.926975	0.130750	0.766150
O209	O	0.938725	0.283270	0.092550
O210	O	0.984225	0.338058	0.124325
H417	H	0.765050	0.494450	0.162625
H418	H	0.986150	0.373125	0.169775
C625	C	0.969500	0.272325	0.113750
Ni53	Ni	0.998700	0.311510	0.084858
N105	N	0.965275	0.338475	0.053775
H419	H	0.750050	0.253450	0.236025
C626	C	0.976925	0.370225	0.011025
C627	C	0.995075	0.349200	0.030425
H420	H	0.968025	0.286750	0.019775
C628	C	0.916125	0.348875	0.058650
H421	H	0.894825	0.341350	0.075175
C629	C	0.895650	0.369925	0.040650
H422	H	0.861150	0.376875	0.044775
C630	C	0.926975	0.380750	0.016150
Ni54	Ni	0.873700	0.438490	0.459858
O211	O	0.810325	0.337405	0.348225
O212	O	0.766625	0.279950	0.368550
N106	N	0.906975	0.460725	0.424050
N107	N	0.840275	0.411525	0.428775
C631	C	0.896950	0.489825	0.378350
H423	H	0.875050	0.496550	0.361025
C632	C	0.948300	0.499500	0.383425
C633	C	0.979275	0.488650	0.408850
C634	C	0.851925	0.379775	0.386025
H424	H	0.873775	0.372750	0.369450
C635	C	0.870075	0.400800	0.405425
H425	H	0.904775	0.407825	0.401975
C636	C	0.877875	0.470225	0.398750
H426	H	0.843025	0.463250	0.394775
C637	C	0.957125	0.469425	0.428425
H427	H	0.978325	0.462075	0.445650
C638	C	0.791125	0.401125	0.433650
H428	H	0.769825	0.408650	0.450175
C639	C	0.770650	0.380075	0.415650
C640	C	0.801975	0.369250	0.391150
C641	C	0.780500	0.346550	0.370375
O213	O	0.935325	0.412595	0.473225
O214	O	0.813725	0.466730	0.467550
O215	O	0.859225	0.411942	0.499325
O216	O	0.891625	0.470050	0.493550
N108	N	0.781975	0.289275	0.299050
C642	C	0.771950	0.260175	0.253350
C643	C	0.823300	0.250500	0.258425
C644	C	0.854275	0.261350	0.283850
H429	H	0.890050	0.255550	0.287625
H430	H	0.998775	0.377250	0.494450
H431	H	0.779775	0.342175	0.276975
C645	C	0.752875	0.279775	0.273750
C646	C	0.832125	0.280575	0.303425
H432	H	0.853325	0.287925	0.320650
C647	C	0.844500	0.477675	0.488750
C648	C	0.905500	0.403450	0.495375
O217	O	0.938725	0.283270	0.592550
O218	O	0.984225	0.338058	0.624325
H433	H	0.765050	0.494450	0.662625
H434	H	0.986150	0.373125	0.669775
C649	C	0.969500	0.272325	0.613750
Ni55	Ni	0.998700	0.311510	0.584858
N109	N	0.965275	0.338475	0.553775
H435	H	0.750050	0.253450	0.736025
C650	C	0.976925	0.370225	0.511025
C651	C	0.995075	0.349200	0.530425
H436	H	0.968025	0.286750	0.519775
C652	C	0.916125	0.348875	0.558650
H437	H	0.894825	0.341350	0.575175
C653	C	0.895650	0.369925	0.540650
H438	H	0.861150	0.376875	0.544775
C654	C	0.926975	0.380750	0.516150
Ni56	Ni	0.873700	0.438490	0.959858
O219	O	0.810325	0.337405	0.848225
O220	O	0.766625	0.279950	0.868550
N110	N	0.906975	0.460725	0.924050
N111	N	0.840275	0.411525	0.928775
C655	C	0.896950	0.489825	0.878350
H439	H	0.875050	0.496550	0.861025
C656	C	0.948300	0.499500	0.883425
C657	C	0.979275	0.488650	0.908850
C658	C	0.851925	0.379775	0.886025
H440	H	0.873775	0.372750	0.869450
C659	C	0.870075	0.400800	0.905425
H441	H	0.904775	0.407825	0.901975
C660	C	0.877875	0.470225	0.898750
H442	H	0.843025	0.463250	0.894775
C661	C	0.957125	0.469425	0.928425
H443	H	0.978325	0.462075	0.945650
C662	C	0.791125	0.401125	0.933650
H444	H	0.769825	0.408650	0.950175
C663	C	0.770650	0.380075	0.915650
C664	C	0.801975	0.369250	0.891150
C665	C	0.780500	0.346550	0.870375
O221	O	0.935325	0.412595	0.973225
O222	O	0.813725	0.466730	0.967550
O223	O	0.859225	0.411942	0.999325
O224	O	0.891625	0.470050	0.993550
N112	N	0.781975	0.289275	0.799050
C666	C	0.771950	0.260175	0.753350
C667	C	0.823300	0.250500	0.758425
C668	C	0.854275	0.261350	0.783850
H445	H	0.890050	0.255550	0.787625
H446	H	0.998775	0.377250	0.994450
H447	H	0.779775	0.342175	0.776975
C669	C	0.752875	0.279775	0.773750
C670	C	0.832125	0.280575	0.803425
H448	H	0.853325	0.287925	0.820650
C671	C	0.844500	0.477675	0.988750
C672	C	0.905500	0.403450	0.995375
Ni57	Ni	0.873700	0.688490	0.209858
O225	O	0.810325	0.587405	0.098225
O226	O	0.766625	0.529950	0.118550
N113	N	0.906975	0.710725	0.174050
N114	N	0.840275	0.661525	0.178775
C673	C	0.896950	0.739825	0.128350
H449	H	0.875050	0.746550	0.111025
C674	C	0.948300	0.749500	0.133425
C675	C	0.979275	0.738650	0.158850
C676	C	0.851925	0.629775	0.136025
H450	H	0.873775	0.622750	0.119450
C677	C	0.870075	0.650800	0.155425
H451	H	0.904775	0.657825	0.151975
C678	C	0.877875	0.720225	0.148750
H452	H	0.843025	0.713250	0.144775
C679	C	0.957125	0.719425	0.178425
H453	H	0.978325	0.712075	0.195650
C680	C	0.791125	0.651125	0.183650
H454	H	0.769825	0.658650	0.200175
C681	C	0.770650	0.630075	0.165650
C682	C	0.801975	0.619250	0.141150
C683	C	0.780500	0.596550	0.120375
O227	O	0.935325	0.662595	0.223225
O228	O	0.813725	0.716730	0.217550
O229	O	0.859225	0.661942	0.249325
O230	O	0.891625	0.720050	0.243550
N115	N	0.781975	0.539275	0.049050
C684	C	0.771950	0.510175	0.003350
C685	C	0.823300	0.500500	0.008425
C686	C	0.854275	0.511350	0.033850
H455	H	0.890050	0.505550	0.037625
H456	H	0.998775	0.627250	0.244450
H457	H	0.779775	0.592175	0.026975
C687	C	0.752875	0.529775	0.023750
C688	C	0.832125	0.530575	0.053425
H458	H	0.853325	0.537925	0.070650
C689	C	0.844500	0.727675	0.238750
C690	C	0.905500	0.653450	0.245375
O231	O	0.938725	0.533270	0.342550
O232	O	0.984225	0.588058	0.374325
H459	H	0.765050	0.744450	0.412625
H460	H	0.986150	0.623125	0.419775
C691	C	0.969500	0.522325	0.363750
Ni58	Ni	0.998700	0.561510	0.334858
N116	N	0.965275	0.588475	0.303775
H461	H	0.750050	0.503450	0.486025
C692	C	0.976925	0.620225	0.261025
C693	C	0.995075	0.599200	0.280425
H462	H	0.968025	0.536750	0.269775
C694	C	0.916125	0.598875	0.308650
H463	H	0.894825	0.591350	0.325175
C695	C	0.895650	0.619925	0.290650
H464	H	0.861150	0.626875	0.294775
C696	C	0.926975	0.630750	0.266150
Ni59	Ni	0.873700	0.688490	0.709858
O233	O	0.810325	0.587405	0.598225
O234	O	0.766625	0.529950	0.618550
N117	N	0.906975	0.710725	0.674050
N118	N	0.840275	0.661525	0.678775
C697	C	0.896950	0.739825	0.628350
H465	H	0.875050	0.746550	0.611025
C698	C	0.948300	0.749500	0.633425
C699	C	0.979275	0.738650	0.658850
C700	C	0.851925	0.629775	0.636025
H466	H	0.873775	0.622750	0.619450
C701	C	0.870075	0.650800	0.655425
H467	H	0.904775	0.657825	0.651975
C702	C	0.877875	0.720225	0.648750
H468	H	0.843025	0.713250	0.644775
C703	C	0.957125	0.719425	0.678425
H469	H	0.978325	0.712075	0.695650
C704	C	0.791125	0.651125	0.683650
H470	H	0.769825	0.658650	0.700175
C705	C	0.770650	0.630075	0.665650
C706	C	0.801975	0.619250	0.641150
C707	C	0.780500	0.596550	0.620375
O235	O	0.935325	0.662595	0.723225
O236	O	0.813725	0.716730	0.717550
O237	O	0.859225	0.661942	0.749325
O238	O	0.891625	0.720050	0.743550
N119	N	0.781975	0.539275	0.549050
C708	C	0.771950	0.510175	0.503350
C709	C	0.823300	0.500500	0.508425
C710	C	0.854275	0.511350	0.533850
H471	H	0.890050	0.505550	0.537625
H472	H	0.998775	0.627250	0.744450
H473	H	0.779775	0.592175	0.526975
C711	C	0.752875	0.529775	0.523750
C712	C	0.832125	0.530575	0.553425
H474	H	0.853325	0.537925	0.570650
C713	C	0.844500	0.727675	0.738750
C714	C	0.905500	0.653450	0.745375
O239	O	0.938725	0.533270	0.842550
O240	O	0.984225	0.588058	0.874325
H475	H	0.765050	0.744450	0.912625
H476	H	0.986150	0.623125	0.919775
C715	C	0.969500	0.522325	0.863750
Ni60	Ni	0.998700	0.561510	0.834858
N120	N	0.965275	0.588475	0.803775
H477	H	0.750050	0.503450	0.986025
C716	C	0.976925	0.620225	0.761025
C717	C	0.995075	0.599200	0.780425
H478	H	0.968025	0.536750	0.769775
C718	C	0.916125	0.598875	0.808650
H479	H	0.894825	0.591350	0.825175
C719	C	0.895650	0.619925	0.790650
H480	H	0.861150	0.626875	0.794775
C720	C	0.926975	0.630750	0.766150
O241	O	0.938725	0.783270	0.092550
O242	O	0.984225	0.838058	0.124325
H481	H	0.765050	0.994450	0.162625
H482	H	0.986150	0.873125	0.169775
C721	C	0.969500	0.772325	0.113750
Ni61	Ni	0.998700	0.811510	0.084858
N121	N	0.965275	0.838475	0.053775
H483	H	0.750050	0.753450	0.236025
C722	C	0.976925	0.870225	0.011025
C723	C	0.995075	0.849200	0.030425
H484	H	0.968025	0.786750	0.019775
C724	C	0.916125	0.848875	0.058650
H485	H	0.894825	0.841350	0.075175
C725	C	0.895650	0.869925	0.040650
H486	H	0.861150	0.876875	0.044775
C726	C	0.926975	0.880750	0.016150
Ni62	Ni	0.873700	0.938490	0.459858
O243	O	0.810325	0.837405	0.348225
O244	O	0.766625	0.779950	0.368550
N122	N	0.906975	0.960725	0.424050
N123	N	0.840275	0.911525	0.428775
C727	C	0.896950	0.989825	0.378350
H487	H	0.875050	0.996550	0.361025
C728	C	0.948300	0.999500	0.383425
C729	C	0.979275	0.988650	0.408850
C730	C	0.851925	0.879775	0.386025
H488	H	0.873775	0.872750	0.369450
C731	C	0.870075	0.900800	0.405425
H489	H	0.904775	0.907825	0.401975
C732	C	0.877875	0.970225	0.398750
H490	H	0.843025	0.963250	0.394775
C733	C	0.957125	0.969425	0.428425
H491	H	0.978325	0.962075	0.445650
C734	C	0.791125	0.901125	0.433650
H492	H	0.769825	0.908650	0.450175
C735	C	0.770650	0.880075	0.415650
C736	C	0.801975	0.869250	0.391150
C737	C	0.780500	0.846550	0.370375
O245	O	0.935325	0.912595	0.473225
O246	O	0.813725	0.966730	0.467550
O247	O	0.859225	0.911942	0.499325
O248	O	0.891625	0.970050	0.493550
N124	N	0.781975	0.789275	0.299050
C738	C	0.771950	0.760175	0.253350
C739	C	0.823300	0.750500	0.258425
C740	C	0.854275	0.761350	0.283850
H493	H	0.890050	0.755550	0.287625
H494	H	0.998775	0.877250	0.494450
H495	H	0.779775	0.842175	0.276975
C741	C	0.752875	0.779775	0.273750
C742	C	0.832125	0.780575	0.303425
H496	H	0.853325	0.787925	0.320650
C743	C	0.844500	0.977675	0.488750
C744	C	0.905500	0.903450	0.495375
O249	O	0.938725	0.783270	0.592550
O250	O	0.984225	0.838058	0.624325
H497	H	0.765050	0.994450	0.662625
H498	H	0.986150	0.873125	0.669775
C745	C	0.969500	0.772325	0.613750
Ni63	Ni	0.998700	0.811510	0.584858
N125	N	0.965275	0.838475	0.553775
H499	H	0.750050	0.753450	0.736025
C746	C	0.976925	0.870225	0.511025
C747	C	0.995075	0.849200	0.530425
H500	H	0.968025	0.786750	0.519775
C748	C	0.916125	0.848875	0.558650
H501	H	0.894825	0.841350	0.575175
C749	C	0.895650	0.869925	0.540650
H502	H	0.861150	0.876875	0.544775
C750	C	0.926975	0.880750	0.516150
Ni64	Ni	0.873700	0.938490	0.959858
O251	O	0.810325	0.837405	0.848225
O252	O	0.766625	0.779950	0.868550
N126	N	0.906975	0.960725	0.924050
N127	N	0.840275	0.911525	0.928775
C751	C	0.896950	0.989825	0.878350
H503	H	0.875050	0.996550	0.861025
C752	C	0.948300	0.999500	0.883425
C753	C	0.979275	0.988650	0.908850
C754	C	0.851925	0.879775	0.886025
H504	H	0.873775	0.872750	0.869450
C755	C	0.870075	0.900800	0.905425
H505	H	0.904775	0.907825	0.901975
C756	C	0.877875	0.970225	0.898750
H506	H	0.843025	0.963250	0.894775
C757	C	0.957125	0.969425	0.928425
H507	H	0.978325	0.962075	0.945650
C758	C	0.791125	0.901125	0.933650
H508	H	0.769825	0.908650	0.950175
C759	C	0.770650	0.880075	0.915650
C760	C	0.801975	0.869250	0.891150
C761	C	0.780500	0.846550	0.870375
O253	O	0.935325	0.912595	0.973225
O254	O	0.813725	0.966730	0.967550
O255	O	0.859225	0.911942	0.999325
O256	O	0.891625	0.970050	0.993550
N128	N	0.781975	0.789275	0.799050
C762	C	0.771950	0.760175	0.753350
C763	C	0.823300	0.750500	0.758425
C764	C	0.854275	0.761350	0.783850
H509	H	0.890050	0.755550	0.787625
H510	H	0.998775	0.877250	0.994450
H511	H	0.779775	0.842175	0.776975
C765	C	0.752875	0.779775	0.773750
C766	C	0.832125	0.780575	0.803425
H512	H	0.853325	0.787925	0.820650
C767	C	0.844500	0.977675	0.988750
C768	C	0.905500	0.903450	0.995375

loop_
_geom_bond_atom_site_label_1
_geom_bond_atom_site_label_2
_geom_bond_distance
O1	C1	0.03894
O1	Ni1	0.06674
O2	Ni1	0.04972
O2	C203	0.04721
H2	C201	0.03543
C1	O66	0.04798
Ni1	N1	0.05301
Ni1	O65	0.06817
Ni1	O66	0.04952
Ni1	N35	0.05370
N1	C3	0.03935
N1	C4	0.05047
H3	C18	0.02872
C2	C3	0.03388
C2	C6	0.05130
C3	H137	0.03557
H4	C207	0.03576
C4	H5	0.02799
C4	C5	0.03444
C5	H6	0.03543
C5	C6	0.04122
Ni2	N2	0.05370
Ni2	N3	0.05301
Ni2	O5	0.06817
Ni2	O6	0.06674
Ni2	O7	0.04972
Ni2	O8	0.04952
O3	C17	0.03826
N2	C12	0.03971
N2	C13	0.05109
N3	C11	0.03935
N3	C14	0.05047
C7	H7	0.02872
C7	C8	0.05250
C7	C12	0.03412
C8	C9	0.04152
C8	C67	0.03684
C9	C13	0.03526
C9	H139	0.03644
C10	H8	0.02831
C10	C11	0.03388
C10	C16	0.05130
C11	H9	0.03557
C12	H10	0.03576
C13	H11	0.02829
C14	H12	0.02799
C14	C15	0.03444
C15	C16	0.04122
C16	C17	0.03752
O5	C24	0.03826
O6	C23	0.03894
O7	C24	0.04721
O8	C23	0.04798
N4	C21	0.03971
N4	C22	0.05109
C18	C19	0.05250
C18	C21	0.03412
C19	C20	0.04152
C20	H13	0.03644
C20	C22	0.03526
H14	C26	0.02831
C22	H16	0.02829
C23	C85	0.03684
C24	C30	0.03752
O9	C25	0.03894
O9	Ni3	0.06674
O10	Ni3	0.04972
O10	C227	0.04721
H18	C225	0.03543
C25	O74	0.04798
Ni3	N5	0.05301
Ni3	O73	0.06817
Ni3	O74	0.04952
Ni3	N39	0.05370
N5	C27	0.03935
N5	C28	0.05047
H19	C42	0.02872
C26	C27	0.03388
C26	C30	0.05130
C27	H153	0.03557
H20	C231	0.03576
C28	H21	0.02799
C28	C29	0.03444
C29	H22	0.03543
C29	C30	0.04122
Ni4	N6	0.05370
Ni4	N7	0.05301
Ni4	O13	0.06817
Ni4	O14	0.06674
Ni4	O15	0.04972
Ni4	O16	0.04952
O11	C41	0.03826
N6	C36	0.03971
N6	C37	0.05109
N7	C35	0.03935
N7	C38	0.05047
C31	H23	0.02872
C31	C32	0.05250
C31	C36	0.03412
C32	C33	0.04152
C32	C91	0.03684
C33	C37	0.03526
C33	H155	0.03644
C34	H24	0.02831
C34	C35	0.03388
C34	C40	0.05130
C35	H25	0.03557
C36	H26	0.03576
C37	H27	0.02829
C38	H28	0.02799
C38	C39	0.03444
C39	C40	0.04122
C40	C41	0.03752
O13	C48	0.03826
O14	C47	0.03894
O15	C48	0.04721
O16	C47	0.04798
N8	C45	0.03971
N8	C46	0.05109
C42	C43	0.05250
C42	C45	0.03412
C43	C44	0.04152
C44	H29	0.03644
C44	C46	0.03526
C46	H32	0.02829
Ni5	N9	0.05370
Ni5	N10	0.05301
Ni5	O19	0.06817
Ni5	O20	0.06674
Ni5	O21	0.04972
Ni5	O22	0.04952
O17	C59	0.03826
N9	C54	0.03971
N9	C55	0.05109
N10	C53	0.03935
N10	C56	0.05047
C49	H33	0.02872
C49	C50	0.05250
C49	C54	0.03412
C50	C51	0.04152
C50	C97	0.03684
C51	C55	0.03526
C51	H161	0.03644
C52	H34	0.02831
C52	C53	0.03388
C52	C58	0.05130
C53	H35	0.03557
C54	H36	0.03576
C55	H37	0.02829
C56	H38	0.02799
C56	C57	0.03444
C57	C58	0.04122
C58	C59	0.03752
O19	C66	0.03826
O20	C65	0.03894
O21	C66	0.04721
O22	C65	0.04798
N11	C63	0.03971
N11	C64	0.05109
C60	C61	0.05250
C60	C63	0.03412
C61	C62	0.04152
C62	H39	0.03644
C62	C64	0.03526
H40	C68	0.02831
C64	H42	0.02829
C65	C115	0.03684
C66	C72	0.03752
O23	C67	0.03894
O23	Ni6	0.06674
O24	Ni6	0.04972
O24	C257	0.04721
H44	C255	0.03543
C67	O84	0.04798
Ni6	N12	0.05301
Ni6	O83	0.06817
Ni6	O84	0.04952
Ni6	N44	0.05370
N12	C69	0.03935
N12	C70	0.05047
H45	C84	0.02872
C68	C69	0.03388
C68	C72	0.05130
C69	H175	0.03557
H46	C261	0.03576
C70	H47	0.02799
C70	C71	0.03444
C71	H48	0.03543
C71	C72	0.04122
Ni7	N13	0.05370
Ni7	N14	0.05301
Ni7	O27	0.06817
Ni7	O28	0.06674
Ni7	O29	0.04972
Ni7	O30	0.04952
O25	C83	0.03826
N13	C78	0.03971
N13	C79	0.05109
N14	C77	0.03935
N14	C80	0.05047
C73	H49	0.02872
C73	C74	0.05250
C73	C78	0.03412
C74	C75	0.04152
C74	C121	0.03684
C75	C79	0.03526
C75	H177	0.03644
C76	H50	0.02831
C76	C77	0.03388
C76	C82	0.05130
C77	H51	0.03557
C78	H52	0.03576
C79	H53	0.02829
C80	H54	0.02799
C80	C81	0.03444
C81	C82	0.04122
C82	C83	0.03752
O27	C90	0.03826
O28	C89	0.03894
O29	C90	0.04721
O30	C89	0.04798
N15	C87	0.03971
N15	C88	0.05109
C84	C85	0.05250
C84	C87	0.03412
C85	C86	0.04152
C86	H55	0.03644
C86	C88	0.03526
H56	C92	0.02831
C88	H58	0.02829
C89	C139	0.03684
C90	C96	0.03752
O31	C91	0.03894
O31	Ni8	0.06674
O32	Ni8	0.04972
O32	C281	0.04721
H60	C279	0.03543
C91	O92	0.04798
Ni8	N16	0.05301
Ni8	O91	0.06817
Ni8	O92	0.04952
Ni8	N48	0.05370
N16	C93	0.03935
N16	C94	0.05047
C92	C93	0.03388
C92	C96	0.05130
C93	H191	0.03557
H62	C285	0.03576
C94	H63	0.02799
C94	C95	0.03444
C95	H64	0.03543
C95	C96	0.04122
O33	C97	0.03894
O33	Ni9	0.06674
O34	Ni9	0.04972
O34	C299	0.04721
H66	C297	0.03543
C97	O98	0.04798
Ni9	N17	0.05301
Ni9	O97	0.06817
Ni9	O98	0.04952
Ni9	N51	0.05370
N17	C99	0.03935
N17	C100	0.05047
H67	C114	0.02872
C98	C99	0.03388
C98	C102	0.05130
C99	H201	0.03557
H68	C303	0.03576
C100	H69	0.02799
C100	C101	0.03444
C101	H70	0.03543
C101	C102	0.04122
Ni10	N18	0.05370
Ni10	N19	0.05301
Ni10	O37	0.06817
Ni10	O38	0.06674
Ni10	O39	0.04972
Ni10	O40	0.04952
O35	C113	0.03826
N18	C108	0.03971
N18	C109	0.05109
N19	C107	0.03935
N19	C110	0.05047
C103	H71	0.02872
C103	C104	0.05250
C103	C108	0.03412
C104	C105	0.04152
C104	C163	0.03684
C105	C109	0.03526
C105	H203	0.03644
C106	H72	0.02831
C106	C107	0.03388
C106	C112	0.05130
C107	H73	0.03557
C108	H74	0.03576
C109	H75	0.02829
C110	H76	0.02799
C110	C111	0.03444
C111	C112	0.04122
C112	C113	0.03752
O37	C120	0.03826
O38	C119	0.03894
O39	C120	0.04721
O40	C119	0.04798
N20	C117	0.03971
N20	C118	0.05109
C114	C115	0.05250
C114	C117	0.03412
C115	C116	0.04152
C116	H77	0.03644
C116	C118	0.03526
H78	C122	0.02831
C118	H80	0.02829
C119	C181	0.03684
C120	C126	0.03752
O41	C121	0.03894
O41	Ni11	0.06674
O42	Ni11	0.04972
O42	C323	0.04721
H82	C321	0.03543
C121	O106	0.04798
Ni11	N21	0.05301
Ni11	O105	0.06817
Ni11	O106	0.04952
Ni11	N55	0.05370
N21	C123	0.03935
N21	C124	0.05047
H83	C138	0.02872
C122	C123	0.03388
C122	C126	0.05130
C123	H217	0.03557
H84	C327	0.03576
C124	H85	0.02799
C124	C125	0.03444
C125	H86	0.03543
C125	C126	0.04122
Ni12	N22	0.05370
Ni12	N23	0.05301
Ni12	O45	0.06817
Ni12	O46	0.06674
Ni12	O47	0.04972
Ni12	O48	0.04952
O43	C137	0.03826
N22	C132	0.03971
N22	C133	0.05109
N23	C131	0.03935
N23	C134	0.05047
C127	H87	0.02872
C127	C128	0.05250
C127	C132	0.03412
C128	C129	0.04152
C128	C187	0.03684
C129	C133	0.03526
C129	H219	0.03644
C130	H88	0.02831
C130	C131	0.03388
C130	C136	0.05130
C131	H89	0.03557
C132	H90	0.03576
C133	H91	0.02829
C134	H92	0.02799
C134	C135	0.03444
C135	C136	0.04122
C136	C137	0.03752
O45	C144	0.03826
O46	C143	0.03894
O47	C144	0.04721
O48	C143	0.04798
N24	C141	0.03971
N24	C142	0.05109
C138	C139	0.05250
C138	C141	0.03412
C139	C140	0.04152
C140	H93	0.03644
C140	C142	0.03526
C142	H96	0.02829
Ni13	N25	0.05370
Ni13	N26	0.05301
Ni13	O51	0.06817
Ni13	O52	0.06674
Ni13	O53	0.04972
Ni13	O54	0.04952
O49	C155	0.03826
N25	C150	0.03971
N25	C151	0.05109
N26	C149	0.03935
N26	C152	0.05047
C145	H97	0.02872
C145	C146	0.05250
C145	C150	0.03412
C146	C147	0.04152
C147	C151	0.03526
C147	H225	0.03644
C148	H98	0.02831
C148	C149	0.03388
C148	C154	0.05130
C149	H99	0.03557
C150	H100	0.03576
C151	H101	0.02829
C152	H102	0.02799
C152	C153	0.03444
C153	C154	0.04122
C154	C155	0.03752
O51	C162	0.03826
O52	C161	0.03894
O53	C162	0.04721
O54	C161	0.04798
N27	C159	0.03971
N27	C160	0.05109
C156	C157	0.05250
C156	C159	0.03412
C157	C158	0.04152
C158	H103	0.03644
C158	C160	0.03526
H104	C164	0.02831
C160	H106	0.02829
C162	C168	0.03752
O55	C163	0.03894
O55	Ni14	0.06674
O56	Ni14	0.04972
O56	C353	0.04721
H108	C351	0.03543
C163	O116	0.04798
Ni14	N28	0.05301
Ni14	O115	0.06817
Ni14	O116	0.04952
Ni14	N60	0.05370
N28	C165	0.03935
N28	C166	0.05047
H109	C180	0.02872
C164	C165	0.03388
C164	C168	0.05130
C165	H239	0.03557
H110	C357	0.03576
C166	H111	0.02799
C166	C167	0.03444
C167	H112	0.03543
C167	C168	0.04122
Ni15	N29	0.05370
Ni15	N30	0.05301
Ni15	O59	0.06817
Ni15	O60	0.06674
Ni15	O61	0.04972
Ni15	O62	0.04952
O57	C179	0.03826
N29	C174	0.03971
N29	C175	0.05109
N30	C173	0.03935
N30	C176	0.05047
C169	H113	0.02872
C169	C170	0.05250
C169	C174	0.03412
C170	C171	0.04152
C171	C175	0.03526
C171	H241	0.03644
C172	H114	0.02831
C172	C173	0.03388
C172	C178	0.05130
C173	H115	0.03557
C174	H116	0.03576
C175	H117	0.02829
C176	H118	0.02799
C176	C177	0.03444
C177	C178	0.04122
C178	C179	0.03752
O59	C186	0.03826
O60	C185	0.03894
O61	C186	0.04721
O62	C185	0.04798
N31	C183	0.03971
N31	C184	0.05109
C180	C181	0.05250
C180	C183	0.03412
C181	C182	0.04152
C182	H119	0.03644
C182	C184	0.03526
H120	C188	0.02831
C184	H122	0.02829
C186	C192	0.03752
O63	C187	0.03894
O63	Ni16	0.06674
O64	Ni16	0.04972
O64	C377	0.04721
H124	C375	0.03543
C187	O124	0.04798
Ni16	N32	0.05301
Ni16	O123	0.06817
Ni16	O124	0.04952
Ni16	N64	0.05370
N32	C189	0.03935
N32	C190	0.05047
C188	C189	0.03388
C188	C192	0.05130
C189	H255	0.03557
H126	C381	0.03576
C190	H127	0.02799
C190	C191	0.03444
C191	H128	0.03543
C191	C192	0.04122
Ni17	N33	0.05370
Ni17	N34	0.05301
Ni17	O67	0.06817
Ni17	O68	0.06674
Ni17	O69	0.04972
Ni17	O70	0.04952
O65	C203	0.03826
N33	C198	0.03971
N33	C199	0.05109
N34	C197	0.03935
N34	C200	0.05047
C193	H129	0.02872
C193	C194	0.05250
C193	C198	0.03412
C194	C195	0.04152
C194	C241	0.03684
C195	C199	0.03526
C195	H257	0.03644
C196	H130	0.02831
C196	C197	0.03388
C196	C202	0.05130
C197	H131	0.03557
C198	H132	0.03576
C199	H133	0.02829
C200	H134	0.02799
C200	C201	0.03444
C201	C202	0.04122
C202	C203	0.03752
O67	C210	0.03826
O68	C209	0.03894
O69	C210	0.04721
O70	C209	0.04798
N35	C207	0.03971
N35	C208	0.05109
C204	C205	0.05250
C204	C207	0.03412
C205	C206	0.04152
C206	H135	0.03644
C206	C208	0.03526
H136	C212	0.02831
C208	H138	0.02829
C209	C259	0.03684
C210	C216	0.03752
O71	C211	0.03894
O71	Ni18	0.06674
O72	Ni18	0.04972
O72	C401	0.04721
H140	C399	0.03543
C211	O132	0.04798
Ni18	N36	0.05301
Ni18	O131	0.06817
Ni18	O132	0.04952
Ni18	N68	0.05370
N36	C213	0.03935
N36	C214	0.05047
H141	C228	0.02872
C212	C213	0.03388
C212	C216	0.05130
C213	H271	0.03557
H142	C405	0.03576
C214	H143	0.02799
C214	C215	0.03444
C215	H144	0.03543
C215	C216	0.04122
Ni19	N37	0.05370
Ni19	N38	0.05301
Ni19	O75	0.06817
Ni19	O76	0.06674
Ni19	O77	0.04972
Ni19	O78	0.04952
O73	C227	0.03826
N37	C222	0.03971
N37	C223	0.05109
N38	C221	0.03935
N38	C224	0.05047
C217	H145	0.02872
C217	C218	0.05250
C217	C222	0.03412
C218	C219	0.04152
C218	C265	0.03684
C219	C223	0.03526
C219	H273	0.03644
C220	H146	0.02831
C220	C221	0.03388
C220	C226	0.05130
C221	H147	0.03557
C222	H148	0.03576
C223	H149	0.02829
C224	H150	0.02799
C224	C225	0.03444
C225	C226	0.04122
C226	C227	0.03752
O75	C234	0.03826
O76	C233	0.03894
O77	C234	0.04721
O78	C233	0.04798
N39	C231	0.03971
N39	C232	0.05109
C228	C229	0.05250
C228	C231	0.03412
C229	C230	0.04152
C230	H151	0.03644
C230	C232	0.03526
H152	C236	0.02831
C232	H154	0.02829
C233	C283	0.03684
C234	C240	0.03752
O79	C235	0.03894
O79	Ni20	0.06674
O80	Ni20	0.04972
O80	C425	0.04721
H156	C423	0.03543
C235	O140	0.04798
Ni20	N40	0.05301
Ni20	O139	0.06817
Ni20	O140	0.04952
Ni20	N72	0.05370
N40	C237	0.03935
N40	C238	0.05047
C236	C237	0.03388
C236	C240	0.05130
C237	H287	0.03557
H158	C429	0.03576
C238	H159	0.02799
C238	C239	0.03444
C239	H160	0.03543
C239	C240	0.04122
O81	C241	0.03894
O81	Ni21	0.06674
O82	Ni21	0.04972
O82	C443	0.04721
H162	C441	0.03543
C241	O146	0.04798
Ni21	N41	0.05301
Ni21	O145	0.06817
Ni21	O146	0.04952
Ni21	N75	0.05370
N41	C243	0.03935
N41	C244	0.05047
H163	C258	0.02872
C242	C243	0.03388
C242	C246	0.05130
C243	H297	0.03557
H164	C447	0.03576
C244	H165	0.02799
C244	C245	0.03444
C245	H166	0.03543
C245	C246	0.04122
Ni22	N42	0.05370
Ni22	N43	0.05301
Ni22	O85	0.06817
Ni22	O86	0.06674
Ni22	O87	0.04972
Ni22	O88	0.04952
O83	C257	0.03826
N42	C252	0.03971
N42	C253	0.05109
N43	C251	0.03935
N43	C254	0.05047
C247	H167	0.02872
C247	C248	0.05250
C247	C252	0.03412
C248	C249	0.04152
C248	C307	0.03684
C249	C253	0.03526
C249	H299	0.03644
C250	H168	0.02831
C250	C251	0.03388
C250	C256	0.05130
C251	H169	0.03557
C252	H170	0.03576
C253	H171	0.02829
C254	H172	0.02799
C254	C255	0.03444
C255	C256	0.04122
C256	C257	0.03752
O85	C264	0.03826
O86	C263	0.03894
O87	C264	0.04721
O88	C263	0.04798
N44	C261	0.03971
N44	C262	0.05109
C258	C259	0.05250
C258	C261	0.03412
C259	C260	0.04152
C260	H173	0.03644
C260	C262	0.03526
H174	C266	0.02831
C262	H176	0.02829
C263	C325	0.03684
C264	C270	0.03752
O89	C265	0.03894
O89	Ni23	0.06674
O90	Ni23	0.04972
O90	C467	0.04721
H178	C465	0.03543
C265	O154	0.04798
Ni23	N45	0.05301
Ni23	O153	0.06817
Ni23	O154	0.04952
Ni23	N79	0.05370
N45	C267	0.03935
N45	C268	0.05047
H179	C282	0.02872
C266	C267	0.03388
C266	C270	0.05130
C267	H313	0.03557
H180	C471	0.03576
C268	H181	0.02799
C268	C269	0.03444
C269	H182	0.03543
C269	C270	0.04122
Ni24	N46	0.05370
Ni24	N47	0.05301
Ni24	O93	0.06817
Ni24	O94	0.06674
Ni24	O95	0.04972
Ni24	O96	0.04952
O91	C281	0.03826
N46	C276	0.03971
N46	C277	0.05109
N47	C275	0.03935
N47	C278	0.05047
C271	H183	0.02872
C271	C272	0.05250
C271	C276	0.03412
C272	C273	0.04152
C272	C331	0.03684
C273	C277	0.03526
C273	H315	0.03644
C274	H184	0.02831
C274	C275	0.03388
C274	C280	0.05130
C275	H185	0.03557
C276	H186	0.03576
C277	H187	0.02829
C278	H188	0.02799
C278	C279	0.03444
C279	C280	0.04122
C280	C281	0.03752
O93	C288	0.03826
O94	C287	0.03894
O95	C288	0.04721
O96	C287	0.04798
N48	C285	0.03971
N48	C286	0.05109
C282	C283	0.05250
C282	C285	0.03412
C283	C284	0.04152
C284	H189	0.03644
C284	C286	0.03526
C286	H192	0.02829
Ni25	N49	0.05370
Ni25	N50	0.05301
Ni25	O99	0.06817
Ni25	O100	0.06674
Ni25	O101	0.04972
Ni25	O102	0.04952
O97	C299	0.03826
N49	C294	0.03971
N49	C295	0.05109
N50	C293	0.03935
N50	C296	0.05047
C289	H193	0.02872
C289	C290	0.05250
C289	C294	0.03412
C290	C291	0.04152
C290	C337	0.03684
C291	C295	0.03526
C291	H321	0.03644
C292	H194	0.02831
C292	C293	0.03388
C292	C298	0.05130
C293	H195	0.03557
C294	H196	0.03576
C295	H197	0.02829
C296	H198	0.02799
C296	C297	0.03444
C297	C298	0.04122
C298	C299	0.03752
O99	C306	0.03826
O100	C305	0.03894
O101	C306	0.04721
O102	C305	0.04798
N51	C303	0.03971
N51	C304	0.05109
C300	C301	0.05250
C300	C303	0.03412
C301	C302	0.04152
C302	H199	0.03644
C302	C304	0.03526
H200	C308	0.02831
C304	H202	0.02829
C305	C355	0.03684
C306	C312	0.03752
O103	C307	0.03894
O103	Ni26	0.06674
O104	Ni26	0.04972
O104	C497	0.04721
H204	C495	0.03543
C307	O164	0.04798
Ni26	N52	0.05301
Ni26	O163	0.06817
Ni26	O164	0.04952
Ni26	N84	0.05370
N52	C309	0.03935
N52	C310	0.05047
H205	C324	0.02872
C308	C309	0.03388
C308	C312	0.05130
C309	H335	0.03557
H206	C501	0.03576
C310	H207	0.02799
C310	C311	0.03444
C311	H208	0.03543
C311	C312	0.04122
Ni27	N53	0.05370
Ni27	N54	0.05301
Ni27	O107	0.06817
Ni27	O108	0.06674
Ni27	O109	0.04972
Ni27	O110	0.04952
O105	C323	0.03826
N53	C318	0.03971
N53	C319	0.05109
N54	C317	0.03935
N54	C320	0.05047
C313	H209	0.02872
C313	C314	0.05250
C313	C318	0.03412
C314	C315	0.04152
C314	C361	0.03684
C315	C319	0.03526
C315	H337	0.03644
C316	H210	0.02831
C316	C317	0.03388
C316	C322	0.05130
C317	H211	0.03557
C318	H212	0.03576
C319	H213	0.02829
C320	H214	0.02799
C320	C321	0.03444
C321	C322	0.04122
C322	C323	0.03752
O107	C330	0.03826
O108	C329	0.03894
O109	C330	0.04721
O110	C329	0.04798
N55	C327	0.03971
N55	C328	0.05109
C324	C325	0.05250
C324	C327	0.03412
C325	C326	0.04152
C326	H215	0.03644
C326	C328	0.03526
H216	C332	0.02831
C328	H218	0.02829
C329	C379	0.03684
C330	C336	0.03752
O111	C331	0.03894
O111	Ni28	0.06674
O112	Ni28	0.04972
O112	C521	0.04721
H220	C519	0.03543
C331	O172	0.04798
Ni28	N56	0.05301
Ni28	O171	0.06817
Ni28	O172	0.04952
Ni28	N88	0.05370
N56	C333	0.03935
N56	C334	0.05047
C332	C333	0.03388
C332	C336	0.05130
C333	H351	0.03557
H222	C525	0.03576
C334	H223	0.02799
C334	C335	0.03444
C335	H224	0.03543
C335	C336	0.04122
O113	C337	0.03894
O113	Ni29	0.06674
O114	Ni29	0.04972
O114	C539	0.04721
H226	C537	0.03543
C337	O178	0.04798
Ni29	N57	0.05301
Ni29	O177	0.06817
Ni29	O178	0.04952
Ni29	N91	0.05370
N57	C339	0.03935
N57	C340	0.05047
H227	C354	0.02872
C338	C339	0.03388
C338	C342	0.05130
C339	H361	0.03557
H228	C543	0.03576
C340	H229	0.02799
C340	C341	0.03444
C341	H230	0.03543
C341	C342	0.04122
Ni30	N58	0.05370
Ni30	N59	0.05301
Ni30	O117	0.06817
Ni30	O118	0.06674
Ni30	O119	0.04972
Ni30	O120	0.04952
O115	C353	0.03826
N58	C348	0.03971
N58	C349	0.05109
N59	C347	0.03935
N59	C350	0.05047
C343	H231	0.02872
C343	C344	0.05250
C343	C348	0.03412
C344	C345	0.04152
C345	C349	0.03526
C345	H363	0.03644
C346	H232	0.02831
C346	C347	0.03388
C346	C352	0.05130
C347	H233	0.03557
C348	H234	0.03576
C349	H235	0.02829
C350	H236	0.02799
C350	C351	0.03444
C351	C352	0.04122
C352	C353	0.03752
O117	C360	0.03826
O118	C359	0.03894
O119	C360	0.04721
O120	C359	0.04798
N60	C357	0.03971
N60	C358	0.05109
C354	C355	0.05250
C354	C357	0.03412
C355	C356	0.04152
C356	H237	0.03644
C356	C358	0.03526
H238	C362	0.02831
C358	H240	0.02829
C360	C366	0.03752
O121	C361	0.03894
O121	Ni31	0.06674
O122	Ni31	0.04972
O122	C563	0.04721
H242	C561	0.03543
C361	O186	0.04798
Ni31	N61	0.05301
Ni31	O185	0.06817
Ni31	O186	0.04952
Ni31	N95	0.05370
N61	C363	0.03935
N61	C364	0.05047
H243	C378	0.02872
C362	C363	0.03388
C362	C366	0.05130
C363	H377	0.03557
H244	C567	0.03576
C364	H245	0.02799
C364	C365	0.03444
C365	H246	0.03543
C365	C366	0.04122
Ni32	N62	0.05370
Ni32	N63	0.05301
Ni32	O125	0.06817
Ni32	O126	0.06674
Ni32	O127	0.04972
Ni32	O128	0.04952
O123	C377	0.03826
N62	C372	0.03971
N62	C373	0.05109
N63	C371	0.03935
N63	C374	0.05047
C367	H247	0.02872
C367	C368	0.05250
C367	C372	0.03412
C368	C369	0.04152
C369	C373	0.03526
C369	H379	0.03644
C370	H248	0.02831
C370	C371	0.03388
C370	C376	0.05130
C371	H249	0.03557
C372	H250	0.03576
C373	H251	0.02829
C374	H252	0.02799
C374	C375	0.03444
C375	C376	0.04122
C376	C377	0.03752
O125	C384	0.03826
O126	C383	0.03894
O127	C384	0.04721
O128	C383	0.04798
N64	C381	0.03971
N64	C382	0.05109
C378	C379	0.05250
C378	C381	0.03412
C379	C380	0.04152
C380	H253	0.03644
C380	C382	0.03526
C382	H256	0.02829
O129	C385	0.03894
O129	Ni33	0.06674
O130	Ni33	0.04972
O130	C587	0.04721
H258	C585	0.03543
C385	O194	0.04798
Ni33	N65	0.05301
Ni33	O193	0.06817
Ni33	O194	0.04952
Ni33	N99	0.05370
N65	C387	0.03935
N65	C388	0.05047
H259	C402	0.02872
C386	C387	0.03388
C386	C390	0.05130
C387	H393	0.03557
H260	C591	0.03576
C388	H261	0.02799
C388	C389	0.03444
C389	H262	0.03543
C389	C390	0.04122
Ni34	N66	0.05370
Ni34	N67	0.05301
Ni34	O133	0.06817
Ni34	O134	0.06674
Ni34	O135	0.04972
Ni34	O136	0.04952
O131	C401	0.03826
N66	C396	0.03971
N66	C397	0.05109
N67	C395	0.03935
N67	C398	0.05047
C391	H263	0.02872
C391	C392	0.05250
C391	C396	0.03412
C392	C393	0.04152
C392	C451	0.03684
C393	C397	0.03526
C393	H395	0.03644
C394	H264	0.02831
C394	C395	0.03388
C394	C400	0.05130
C395	H265	0.03557
C396	H266	0.03576
C397	H267	0.02829
C398	H268	0.02799
C398	C399	0.03444
C399	C400	0.04122
C400	C401	0.03752
O133	C408	0.03826
O134	C407	0.03894
O135	C408	0.04721
O136	C407	0.04798
N68	C405	0.03971
N68	C406	0.05109
C402	C403	0.05250
C402	C405	0.03412
C403	C404	0.04152
C404	H269	0.03644
C404	C406	0.03526
H270	C410	0.02831
C406	H272	0.02829
C407	C469	0.03684
C408	C414	0.03752
O137	C409	0.03894
O137	Ni35	0.06674
O138	Ni35	0.04972
O138	C611	0.04721
H274	C609	0.03543
C409	O202	0.04798
Ni35	N69	0.05301
Ni35	O201	0.06817
Ni35	O202	0.04952
Ni35	N103	0.05370
N69	C411	0.03935
N69	C412	0.05047
H275	C426	0.02872
C410	C411	0.03388
C410	C414	0.05130
C411	H409	0.03557
H276	C615	0.03576
C412	H277	0.02799
C412	C413	0.03444
C413	H278	0.03543
C413	C414	0.04122
Ni36	N70	0.05370
Ni36	N71	0.05301
Ni36	O141	0.06817
Ni36	O142	0.06674
Ni36	O143	0.04972
Ni36	O144	0.04952
O139	C425	0.03826
N70	C420	0.03971
N70	C421	0.05109
N71	C419	0.03935
N71	C422	0.05047
C415	H279	0.02872
C415	C416	0.05250
C415	C420	0.03412
C416	C417	0.04152
C416	C475	0.03684
C417	C421	0.03526
C417	H411	0.03644
C418	H280	0.02831
C418	C419	0.03388
C418	C424	0.05130
C419	H281	0.03557
C420	H282	0.03576
C421	H283	0.02829
C422	H284	0.02799
C422	C423	0.03444
C423	C424	0.04122
C424	C425	0.03752
O141	C432	0.03826
O142	C431	0.03894
O143	C432	0.04721
O144	C431	0.04798
N72	C429	0.03971
N72	C430	0.05109
C426	C427	0.05250
C426	C429	0.03412
C427	C428	0.04152
C428	H285	0.03644
C428	C430	0.03526
C430	H288	0.02829
Ni37	N73	0.05370
Ni37	N74	0.05301
Ni37	O147	0.06817
Ni37	O148	0.06674
Ni37	O149	0.04972
Ni37	O150	0.04952
O145	C443	0.03826
N73	C438	0.03971
N73	C439	0.05109
N74	C437	0.03935
N74	C440	0.05047
C433	H289	0.02872
C433	C434	0.05250
C433	C438	0.03412
C434	C435	0.04152
C434	C481	0.03684
C435	C439	0.03526
C435	H417	0.03644
C436	H290	0.02831
C436	C437	0.03388
C436	C442	0.05130
C437	H291	0.03557
C438	H292	0.03576
C439	H293	0.02829
C440	H294	0.02799
C440	C441	0.03444
C441	C442	0.04122
C442	C443	0.03752
O147	C450	0.03826
O148	C449	0.03894
O149	C450	0.04721
O150	C449	0.04798
N75	C447	0.03971
N75	C448	0.05109
C444	C445	0.05250
C444	C447	0.03412
C445	C446	0.04152
C446	H295	0.03644
C446	C448	0.03526
H296	C452	0.02831
C448	H298	0.02829
C449	C499	0.03684
C450	C456	0.03752
O151	C451	0.03894
O151	Ni38	0.06674
O152	Ni38	0.04972
O152	C641	0.04721
H300	C639	0.03543
C451	O212	0.04798
Ni38	N76	0.05301
Ni38	O211	0.06817
Ni38	O212	0.04952
Ni38	N108	0.05370
N76	C453	0.03935
N76	C454	0.05047
H301	C468	0.02872
C452	C453	0.03388
C452	C456	0.05130
C453	H431	0.03557
H302	C645	0.03576
C454	H303	0.02799
C454	C455	0.03444
C455	H304	0.03543
C455	C456	0.04122
Ni39	N77	0.05370
Ni39	N78	0.05301
Ni39	O155	0.06817
Ni39	O156	0.06674
Ni39	O157	0.04972
Ni39	O158	0.04952
O153	C467	0.03826
N77	C462	0.03971
N77	C463	0.05109
N78	C461	0.03935
N78	C464	0.05047
C457	H305	0.02872
C457	C458	0.05250
C457	C462	0.03412
C458	C459	0.04152
C458	C505	0.03684
C459	C463	0.03526
C459	H433	0.03644
C460	H306	0.02831
C460	C461	0.03388
C460	C466	0.05130
C461	H307	0.03557
C462	H308	0.03576
C463	H309	0.02829
C464	H310	0.02799
C464	C465	0.03444
C465	C466	0.04122
C466	C467	0.03752
O155	C474	0.03826
O156	C473	0.03894
O157	C474	0.04721
O158	C473	0.04798
N79	C471	0.03971
N79	C472	0.05109
C468	C469	0.05250
C468	C471	0.03412
C469	C470	0.04152
C470	H311	0.03644
C470	C472	0.03526
H312	C476	0.02831
C472	H314	0.02829
C473	C523	0.03684
C474	C480	0.03752
O159	C475	0.03894
O159	Ni40	0.06674
O160	Ni40	0.04972
O160	C665	0.04721
H316	C663	0.03543
C475	O220	0.04798
Ni40	N80	0.05301
Ni40	O219	0.06817
Ni40	O220	0.04952
Ni40	N112	0.05370
N80	C477	0.03935
N80	C478	0.05047
C476	C477	0.03388
C476	C480	0.05130
C477	H447	0.03557
H318	C669	0.03576
C478	H319	0.02799
C478	C479	0.03444
C479	H320	0.03543
C479	C480	0.04122
O161	C481	0.03894
O161	Ni41	0.06674
O162	Ni41	0.04972
O162	C683	0.04721
H322	C681	0.03543
C481	O226	0.04798
Ni41	N81	0.05301
Ni41	O225	0.06817
Ni41	O226	0.04952
Ni41	N115	0.05370
N81	C483	0.03935
N81	C484	0.05047
H323	C498	0.02872
C482	C483	0.03388
C482	C486	0.05130
C483	H457	0.03557
H324	C687	0.03576
C484	H325	0.02799
C484	C485	0.03444
C485	H326	0.03543
C485	C486	0.04122
Ni42	N82	0.05370
Ni42	N83	0.05301
Ni42	O165	0.06817
Ni42	O166	0.06674
Ni42	O167	0.04972
Ni42	O168	0.04952
O163	C497	0.03826
N82	C492	0.03971
N82	C493	0.05109
N83	C491	0.03935
N83	C494	0.05047
C487	H327	0.02872
C487	C488	0.05250
C487	C492	0.03412
C488	C489	0.04152
C488	C547	0.03684
C489	C493	0.03526
C489	H459	0.03644
C490	H328	0.02831
C490	C491	0.03388
C490	C496	0.05130
C491	H329	0.03557
C492	H330	0.03576
C493	H331	0.02829
C494	H332	0.02799
C494	C495	0.03444
C495	C496	0.04122
C496	C497	0.03752
O165	C504	0.03826
O166	C503	0.03894
O167	C504	0.04721
O168	C503	0.04798
N84	C501	0.03971
N84	C502	0.05109
C498	C499	0.05250
C498	C501	0.03412
C499	C500	0.04152
C500	H333	0.03644
C500	C502	0.03526
H334	C506	0.02831
C502	H336	0.02829
C503	C565	0.03684
C504	C510	0.03752
O169	C505	0.03894
O169	Ni43	0.06674
O170	Ni43	0.04972
O170	C707	0.04721
H338	C705	0.03543
C505	O234	0.04798
Ni43	N85	0.05301
Ni43	O233	0.06817
Ni43	O234	0.04952
Ni43	N119	0.05370
N85	C507	0.03935
N85	C508	0.05047
H339	C522	0.02872
C506	C507	0.03388
C506	C510	0.05130
C507	H473	0.03557
H340	C711	0.03576
C508	H341	0.02799
C508	C509	0.03444
C509	H342	0.03543
C509	C510	0.04122
Ni44	N86	0.05370
Ni44	N87	0.05301
Ni44	O173	0.06817
Ni44	O174	0.06674
Ni44	O175	0.04972
Ni44	O176	0.04952
O171	C521	0.03826
N86	C516	0.03971
N86	C517	0.05109
N87	C515	0.03935
N87	C518	0.05047
C511	H343	0.02872
C511	C512	0.05250
C511	C516	0.03412
C512	C513	0.04152
C512	C571	0.03684
C513	C517	0.03526
C513	H475	0.03644
C514	H344	0.02831
C514	C515	0.03388
C514	C520	0.05130
C515	H345	0.03557
C516	H346	0.03576
C517	H347	0.02829
C518	H348	0.02799
C518	C519	0.03444
C519	C520	0.04122
C520	C521	0.03752
O173	C528	0.03826
O174	C527	0.03894
O175	C528	0.04721
O176	C527	0.04798
N88	C525	0.03971
N88	C526	0.05109
C522	C523	0.05250
C522	C525	0.03412
C523	C524	0.04152
C524	H349	0.03644
C524	C526	0.03526
C526	H352	0.02829
Ni45	N89	0.05370
Ni45	N90	0.05301
Ni45	O179	0.06817
Ni45	O180	0.06674
Ni45	O181	0.04972
Ni45	O182	0.04952
O177	C539	0.03826
N89	C534	0.03971
N89	C535	0.05109
N90	C533	0.03935
N90	C536	0.05047
C529	H353	0.02872
C529	C530	0.05250
C529	C534	0.03412
C530	C531	0.04152
C531	C535	0.03526
C531	H481	0.03644
C532	H354	0.02831
C532	C533	0.03388
C532	C538	0.05130
C533	H355	0.03557
C534	H356	0.03576
C535	H357	0.02829
C536	H358	0.02799
C536	C537	0.03444
C537	C538	0.04122
C538	C539	0.03752
O179	C546	0.03826
O180	C545	0.03894
O181	C546	0.04721
O182	C545	0.04798
N91	C543	0.03971
N91	C544	0.05109
C540	C541	0.05250
C540	C543	0.03412
C541	C542	0.04152
C542	H359	0.03644
C542	C544	0.03526
H360	C548	0.02831
C544	H362	0.02829
C546	C552	0.03752
O183	C547	0.03894
O183	Ni46	0.06674
O184	Ni46	0.04972
O184	C737	0.04721
H364	C735	0.03543
C547	O244	0.04798
Ni46	N92	0.05301
Ni46	O243	0.06817
Ni46	O244	0.04952
Ni46	N124	0.05370
N92	C549	0.03935
N92	C550	0.05047
H365	C564	0.02872
C548	C549	0.03388
C548	C552	0.05130
C549	H495	0.03557
H366	C741	0.03576
C550	H367	0.02799
C550	C551	0.03444
C551	H368	0.03543
C551	C552	0.04122
Ni47	N93	0.05370
Ni47	N94	0.05301
Ni47	O187	0.06817
Ni47	O188	0.06674
Ni47	O189	0.04972
Ni47	O190	0.04952
O185	C563	0.03826
N93	C558	0.03971
N93	C559	0.05109
N94	C557	0.03935
N94	C560	0.05047
C553	H369	0.02872
C553	C554	0.05250
C553	C558	0.03412
C554	C555	0.04152
C555	C559	0.03526
C555	H497	0.03644
C556	H370	0.02831
C556	C557	0.03388
C556	C562	0.05130
C557	H371	0.03557
C558	H372	0.03576
C559	H373	0.02829
C560	H374	0.02799
C560	C561	0.03444
C561	C562	0.04122
C562	C563	0.03752
O187	C570	0.03826
O188	C569	0.03894
O189	C570	0.04721
O190	C569	0.04798
N95	C567	0.03971
N95	C568	0.05109
C564	C565	0.05250
C564	C567	0.03412
C565	C566	0.04152
C566	H375	0.03644
C566	C568	0.03526
H376	C572	0.02831
C568	H378	0.02829
C570	C576	0.03752
O191	C571	0.03894
O191	Ni48	0.06674
O192	Ni48	0.04972
O192	C761	0.04721
H380	C759	0.03543
C571	O252	0.04798
Ni48	N96	0.05301
Ni48	O251	0.06817
Ni48	O252	0.04952
Ni48	N128	0.05370
N96	C573	0.03935
N96	C574	0.05047
C572	C573	0.03388
C572	C576	0.05130
C573	H511	0.03557
H382	C765	0.03576
C574	H383	0.02799
C574	C575	0.03444
C575	H384	0.03543
C575	C576	0.04122
Ni49	N97	0.05370
Ni49	N98	0.05301
Ni49	O195	0.06817
Ni49	O196	0.06674
Ni49	O197	0.04972
Ni49	O198	0.04952
O193	C587	0.03826
N97	C582	0.03971
N97	C583	0.05109
N98	C581	0.03935
N98	C584	0.05047
C577	H385	0.02872
C577	C578	0.05250
C577	C582	0.03412
C578	C579	0.04152
C578	C625	0.03684
C579	C583	0.03526
C580	H386	0.02831
C580	C581	0.03388
C580	C586	0.05130
C581	H387	0.03557
C582	H388	0.03576
C583	H389	0.02829
C584	H390	0.02799
C584	C585	0.03444
C585	C586	0.04122
C586	C587	0.03752
O195	C594	0.03826
O196	C593	0.03894
O197	C594	0.04721
O198	C593	0.04798
N99	C591	0.03971
N99	C592	0.05109
C588	C589	0.05250
C588	C591	0.03412
C589	C590	0.04152
C590	H391	0.03644
C590	C592	0.03526
H392	C596	0.02831
C592	H394	0.02829
C593	C643	0.03684
C594	C600	0.03752
O199	C595	0.03894
O199	Ni50	0.06674
O200	Ni50	0.04972
Ni50	N100	0.05301
N100	C597	0.03935
N100	C598	0.05047
H397	C612	0.02872
C596	C597	0.03388
C596	C600	0.05130
C598	H399	0.02799
C598	C599	0.03444
C599	H400	0.03543
C599	C600	0.04122
Ni51	N101	0.05370
Ni51	N102	0.05301
Ni51	O203	0.06817
Ni51	O204	0.06674
Ni51	O205	0.04972
Ni51	O206	0.04952
O201	C611	0.03826
N101	C606	0.03971
N101	C607	0.05109
N102	C605	0.03935
N102	C608	0.05047
C601	H401	0.02872
C601	C602	0.05250
C601	C606	0.03412
C602	C603	0.04152
C602	C649	0.03684
C603	C607	0.03526
C604	H402	0.02831
C604	C605	0.03388
C604	C610	0.05130
C605	H403	0.03557
C606	H404	0.03576
C607	H405	0.02829
C608	H406	0.02799
C608	C609	0.03444
C609	C610	0.04122
C610	C611	0.03752
O203	C618	0.03826
O204	C617	0.03894
O205	C618	0.04721
O206	C617	0.04798
N103	C615	0.03971
N103	C616	0.05109
C612	C613	0.05250
C612	C615	0.03412
C613	C614	0.04152
C614	H407	0.03644
C614	C616	0.03526
H408	C620	0.02831
C616	H410	0.02829
C617	C667	0.03684
C618	C624	0.03752
O207	C619	0.03894
O207	Ni52	0.06674
O208	Ni52	0.04972
Ni52	N104	0.05301
N104	C621	0.03935
N104	C622	0.05047
C620	C621	0.03388
C620	C624	0.05130
C622	H415	0.02799
C622	C623	0.03444
C623	H416	0.03543
C623	C624	0.04122
O209	C625	0.03894
O209	Ni53	0.06674
O210	Ni53	0.04972
Ni53	N105	0.05301
N105	C627	0.03935
N105	C628	0.05047
H419	C642	0.02872
C626	C627	0.03388
C626	C630	0.05130
C628	H421	0.02799
C628	C629	0.03444
C629	H422	0.03543
C629	C630	0.04122
Ni54	N106	0.05370
Ni54	N107	0.05301
Ni54	O213	0.06817
Ni54	O214	0.06674
Ni54	O215	0.04972
Ni54	O216	0.04952
O211	C641	0.03826
N106	C636	0.03971
N106	C637	0.05109
N107	C635	0.03935
N107	C638	0.05047
C631	H423	0.02872
C631	C632	0.05250
C631	C636	0.03412
C632	C633	0.04152
C632	C691	0.03684
C633	C637	0.03526
C634	H424	0.02831
C634	C635	0.03388
C634	C640	0.05130
C635	H425	0.03557
C636	H426	0.03576
C637	H427	0.02829
C638	H428	0.02799
C638	C639	0.03444
C639	C640	0.04122
C640	C641	0.03752
O213	C648	0.03826
O214	C647	0.03894
O215	C648	0.04721
O216	C647	0.04798
N108	C645	0.03971
N108	C646	0.05109
C642	C643	0.05250
C642	C645	0.03412
C643	C644	0.04152
C644	H429	0.03644
C644	C646	0.03526
H430	C650	0.02831
C646	H432	0.02829
C647	C709	0.03684
C648	C654	0.03752
O217	C649	0.03894
O217	Ni55	0.06674
O218	Ni55	0.04972
Ni55	N109	0.05301
N109	C651	0.03935
N109	C652	0.05047
H435	C666	0.02872
C650	C651	0.03388
C650	C654	0.05130
C652	H437	0.02799
C652	C653	0.03444
C653	H438	0.03543
C653	C654	0.04122
Ni56	N110	0.05370
Ni56	N111	0.05301
Ni56	O221	0.06817
Ni56	O222	0.06674
Ni56	O223	0.04972
Ni56	O224	0.04952
O219	C665	0.03826
N110	C660	0.03971
N110	C661	0.05109
N111	C659	0.03935
N111	C662	0.05047
C655	H439	0.02872
C655	C656	0.05250
C655	C660	0.03412
C656	C657	0.04152
C656	C715	0.03684
C657	C661	0.03526
C658	H440	0.02831
C658	C659	0.03388
C658	C664	0.05130
C659	H441	0.03557
C660	H442	0.03576
C661	H443	0.02829
C662	H444	0.02799
C662	C663	0.03444
C663	C664	0.04122
C664	C665	0.03752
O221	C672	0.03826
O222	C671	0.03894
O223	C672	0.04721
O224	C671	0.04798
N112	C669	0.03971
N112	C670	0.05109
C666	C667	0.05250
C666	C669	0.03412
C667	C668	0.04152
C668	H445	0.03644
C668	C670	0.03526
C670	H448	0.02829
Ni57	N113	0.05370
Ni57	N114	0.05301
Ni57	O227	0.06817
Ni57	O228	0.06674
Ni57	O229	0.04972
Ni57	O230	0.04952
O225	C683	0.03826
N113	C678	0.03971
N113	C679	0.05109
N114	C677	0.03935
N114	C680	0.05047
C673	H449	0.02872
C673	C674	0.05250
C673	C678	0.03412
C674	C675	0.04152
C674	C721	0.03684
C675	C679	0.03526
C676	H450	0.02831
C676	C677	0.03388
C676	C682	0.05130
C677	H451	0.03557
C678	H452	0.03576
C679	H453	0.02829
C680	H454	0.02799
C680	C681	0.03444
C681	C682	0.04122
C682	C683	0.03752
O227	C690	0.03826
O228	C689	0.03894
O229	C690	0.04721
O230	C689	0.04798
N115	C687	0.03971
N115	C688	0.05109
C684	C685	0.05250
C684	C687	0.03412
C685	C686	0.04152
C686	H455	0.03644
C686	C688	0.03526
H456	C692	0.02831
C688	H458	0.02829
C689	C739	0.03684
C690	C696	0.03752
O231	C691	0.03894
O231	Ni58	0.06674
O232	Ni58	0.04972
Ni58	N116	0.05301
N116	C693	0.03935
N116	C694	0.05047
H461	C708	0.02872
C692	C693	0.03388
C692	C696	0.05130
C694	H463	0.02799
C694	C695	0.03444
C695	H464	0.03543
C695	C696	0.04122
Ni59	N117	0.05370
Ni59	N118	0.05301
Ni59	O235	0.06817
Ni59	O236	0.06674
Ni59	O237	0.04972
Ni59	O238	0.04952
O233	C707	0.03826
N117	C702	0.03971
N117	C703	0.05109
N118	C701	0.03935
N118	C704	0.05047
C697	H465	0.02872
C697	C698	0.05250
C697	C702	0.03412
C698	C699	0.04152
C698	C745	0.03684
C699	C703	0.03526
C700	H466	0.02831
C700	C701	0.03388
C700	C706	0.05130
C701	H467	0.03557
C702	H468	0.03576
C703	H469	0.02829
C704	H470	0.02799
C704	C705	0.03444
C705	C706	0.04122
C706	C707	0.03752
O235	C714	0.03826
O236	C713	0.03894
O237	C714	0.04721
O238	C713	0.04798
N119	C711	0.03971
N119	C712	0.05109
C708	C709	0.05250
C708	C711	0.03412
C709	C710	0.04152
C710	H471	0.03644
C710	C712	0.03526
H472	C716	0.02831
C712	H474	0.02829
C713	C763	0.03684
C714	C720	0.03752
O239	C715	0.03894
O239	Ni60	0.06674
O240	Ni60	0.04972
Ni60	N120	0.05301
N120	C717	0.03935
N120	C718	0.05047
C716	C717	0.03388
C716	C720	0.05130
C718	H479	0.02799
C718	C719	0.03444
C719	H480	0.03543
C719	C720	0.04122
O241	C721	0.03894
O241	Ni61	0.06674
O242	Ni61	0.04972
Ni61	N121	0.05301
N121	C723	0.03935
N121	C724	0.05047
H483	C738	0.02872
C722	C723	0.03388
C722	C726	0.05130
C724	H485	0.02799
C724	C725	0.03444
C725	H486	0.03543
C725	C726	0.04122
Ni62	N122	0.05370
Ni62	N123	0.05301
Ni62	O245	0.06817
Ni62	O246	0.06674
Ni62	O247	0.04972
Ni62	O248	0.04952
O243	C737	0.03826
N122	C732	0.03971
N122	C733	0.05109
N123	C731	0.03935
N123	C734	0.05047
C727	H487	0.02872
C727	C728	0.05250
C727	C732	0.03412
C728	C729	0.04152
C729	C733	0.03526
C730	H488	0.02831
C730	C731	0.03388
C730	C736	0.05130
C731	H489	0.03557
C732	H490	0.03576
C733	H491	0.02829
C734	H492	0.02799
C734	C735	0.03444
C735	C736	0.04122
C736	C737	0.03752
O245	C744	0.03826
O246	C743	0.03894
O247	C744	0.04721
O248	C743	0.04798
N124	C741	0.03971
N124	C742	0.05109
C738	C739	0.05250
C738	C741	0.03412
C739	C740	0.04152
C740	H493	0.03644
C740	C742	0.03526
H494	C746	0.02831
C742	H496	0.02829
C744	C750	0.03752
O249	C745	0.03894
O249	Ni63	0.06674
O250	Ni63	0.04972
Ni63	N125	0.05301
N125	C747	0.03935
N125	C748	0.05047
H499	C762	0.02872
C746	C747	0.03388
C746	C750	0.05130
C748	H501	0.02799
C748	C749	0.03444
C749	H502	0.03543
C749	C750	0.04122
Ni64	N126	0.05370
Ni64	N127	0.05301
Ni64	O253	0.06817
Ni64	O254	0.06674
Ni64	O255	0.04972
Ni64	O256	0.04952
O251	C761	0.03826
N126	C756	0.03971
N126	C757	0.05109
N127	C755	0.03935
N127	C758	0.05047
C751	H503	0.02872
C751	C752	0.05250
C751	C756	0.03412
C752	C753	0.04152
C753	C757	0.03526
C754	H504	0.02831
C754	C755	0.03388
C754	C760	0.05130
C755	H505	0.03557
C756	H506	0.03576
C757	H507	0.02829
C758	H508	0.02799
C758	C759	0.03444
C759	C760	0.04122
C760	C761	0.03752
O253	C768	0.03826
O254	C767	0.03894
O255	C768	0.04721
O256	C767	0.04798
N128	C765	0.03971
N128	C766	0.05109
C762	C763	0.05250
C762	C765	0.03412
C763	C764	0.04152
C764	H509	0.03644
C764	C766	0.03526
C766	H512	0.02829
