data_NiPyC2_oNH2NiPyC2_oNH2_comp1_PM
_symmetry_space_group_name_H-M	'P1'
_cell_length_a	25.011234
_cell_length_b	50.093648
_cell_length_c	41.107240
_cell_angle_alpha	90.000000
_cell_angle_beta	91.268973
_cell_angle_gamma	90.000000
_symmetry_Int_Tables_number 1

loop_
_symmetry_equiv_pos_as_xyz
'x,y,z'

loop_
_atom_site_label
_atom_site_type_symbol
_atom_site_fract_x
_atom_site_fract_y
_atom_site_fract_z
C1	C	0.138189	0.245939	0.133402
C2	C	0.026780	0.005358	0.001329
C3	C	0.188739	0.007431	0.138665
C4	C	0.078154	0.246172	0.007544
C5	C	0.224213	0.245862	0.161017
C6	C	0.108361	0.006830	0.033388
C7	C	0.090063	0.125537	0.139120
C8	C	0.226941	0.117705	0.006124
C9	C	0.116548	0.147442	0.154100
C10	C	0.240305	0.096296	0.026516
C11	C	0.124343	0.223348	0.151501
C12	C	0.005669	0.025330	0.021749
C13	C	0.208168	0.222509	0.177743
C14	C	0.085003	0.026544	0.052523
C15	C	0.042730	0.155874	0.186100
C16	C	0.156967	0.097792	0.051187
C17	C	0.014443	0.134352	0.172427
C18	C	0.141001	0.119669	0.031613
C19	C	0.038503	0.119342	0.148159
C20	C	0.176756	0.129624	0.009343
C21	C	0.205358	0.030812	0.120059
C22	C	0.099115	0.224594	0.237793
C23	C	0.009469	0.097209	0.131530
C24	C	0.160078	0.152411	0.239653
C25	C	0.407421	0.240725	0.128943
C26	C	0.274037	0.008430	0.008542
C27	C	0.458445	0.000487	0.135704
C28	C	0.327002	0.001126	0.015960
C29	C	0.486717	0.240288	0.162767
C30	C	0.351529	0.011494	0.043799
C31	C	0.342454	0.134735	0.128526
C32	C	0.487067	0.119611	0.008189
C33	C	0.369376	0.152751	0.149768
C34	C	0.004565	0.098085	0.027477
C35	C	0.384256	0.222153	0.150387
C36	C	0.248612	0.027024	0.028662
C37	C	0.462247	0.221040	0.182258
C38	C	0.322906	0.029477	0.063605
C39	C	0.300038	0.150626	0.186461
C40	C	0.425157	0.097825	0.056090
C41	C	0.272720	0.131650	0.167420
C42	C	0.403170	0.118097	0.035659
C43	C	0.293865	0.124017	0.137524
C44	C	0.435398	0.129715	0.012448
C45	C	0.480490	0.021713	0.115271
C46	C	0.359635	0.232950	0.245541
C47	C	0.266165	0.104100	0.116711
C48	C	0.415175	0.152441	0.243287
H1	H	0.109086	0.004504	0.116496
H2	H	0.251800	0.000413	0.237780
H3	H	0.026804	0.246980	0.169256
H4	H	0.148384	0.249751	0.039384
H5	H	0.112166	0.114000	0.121526
H6	H	0.013638	0.128035	0.240338
H7	H	0.043485	0.088925	0.023843
H8	H	0.084854	0.214359	0.149123
H9	H	0.208118	0.033861	0.023074
H10	H	0.106699	0.034226	0.073661
H11	H	0.025542	0.167741	0.205304
H12	H	0.235867	0.123184	0.176297
H13	H	0.101494	0.128401	0.034435
H14	H	0.383628	0.246879	0.107808
H15	H	0.001441	0.247534	0.231798
H16	H	0.263952	0.004041	0.165862
H17	H	0.391902	0.005876	0.051478
H18	H	0.361756	0.129501	0.105945
H19	H	0.255702	0.124931	0.238808
H20	H	0.279313	0.086704	0.025719
H21	H	0.483490	0.212569	0.203146
H22	H	0.284065	0.157319	0.209437
H23	H	0.475033	0.129696	0.181235
H24	H	0.362710	0.125183	0.039899
H25	H	0.227222	0.193297	0.210295
H26	H	0.277971	0.217025	0.206148
H27	H	0.438354	0.046178	0.032365
H28	H	0.431420	0.020303	0.003125
H29	H	0.187577	0.167428	0.157807
H30	H	0.185971	0.139688	0.131350
H31	H	0.136650	0.072209	0.087788
H32	H	0.087842	0.095837	0.077686
H33	H	0.315871	0.200791	0.159862
H34	H	0.312190	0.222099	0.126017
H35	H	0.323978	0.050162	0.106223
H36	H	0.386703	0.035626	0.094759
H37	H	0.440454	0.172152	0.158655
H38	H	0.436824	0.153077	0.123050
H39	H	0.418864	0.079355	0.100100
H40	H	0.358122	0.093074	0.084960
N1	N	0.157624	0.211851	0.173325
N2	N	0.035555	0.036063	0.046994
N3	N	0.092239	0.162594	0.177295
N4	N	0.206990	0.086620	0.048786
N5	N	0.412087	0.212115	0.176860
N6	N	0.271846	0.037594	0.055397
N7	N	0.346884	0.161603	0.178046
N8	N	0.475452	0.087389	0.051303
N9	N	0.241431	0.209546	0.197837
N10	N	0.455392	0.033251	0.016536
N11	N	0.166209	0.153292	0.145327
N12	N	0.124102	0.087485	0.072773
N13	N	0.333761	0.214238	0.144975
N14	N	0.345703	0.038756	0.090760
N15	N	0.418112	0.161400	0.142284
N16	N	0.398232	0.088631	0.081313
Ni1	Ni	0.127975	0.187907	0.206819
Ni2	Ni	0.236388	0.064270	0.083220
Ni3	Ni	0.381478	0.187527	0.209143
Ni4	Ni	0.007236	0.059131	0.080967
O1	O	0.036017	0.085852	0.108209
O2	O	0.189378	0.162750	0.217379
O3	O	0.175717	0.041254	0.097173
O4	O	0.069430	0.212584	0.216272
O5	O	0.217058	0.098908	0.118956
O6	O	0.114018	0.163073	0.243014
O7	O	0.028025	0.030294	0.117069
O8	O	0.147107	0.215946	0.240618
O9	O	0.293126	0.090740	0.095351
O10	O	0.443045	0.164184	0.221321
O11	O	0.449850	0.033712	0.093620
O12	O	0.335663	0.215189	0.227242
O13	O	0.463214	0.090482	0.138487
O14	O	0.368357	0.162338	0.246749
O15	O	0.251330	0.041705	0.123951
O16	O	0.409415	0.234955	0.246760
C49	C	0.138189	0.245939	0.383402
C50	C	0.026780	0.005358	0.251329
C51	C	0.188739	0.007431	0.388665
C52	C	0.078154	0.246172	0.257545
C53	C	0.224213	0.245862	0.411017
C54	C	0.108361	0.006830	0.283388
C55	C	0.090063	0.125537	0.389120
C56	C	0.226941	0.117705	0.256124
C57	C	0.116548	0.147442	0.404100
C58	C	0.240305	0.096296	0.276516
C59	C	0.124343	0.223348	0.401501
C60	C	0.005669	0.025330	0.271749
C61	C	0.208168	0.222509	0.427743
C62	C	0.085003	0.026544	0.302523
C63	C	0.042730	0.155874	0.436100
C64	C	0.156967	0.097792	0.301187
C65	C	0.014443	0.134352	0.422427
C66	C	0.141001	0.119669	0.281613
C67	C	0.038503	0.119342	0.398159
C68	C	0.176756	0.129624	0.259344
C69	C	0.205358	0.030812	0.370059
C70	C	0.099115	0.224594	0.487793
C71	C	0.009469	0.097209	0.381530
C72	C	0.160078	0.152411	0.489653
C73	C	0.407421	0.240725	0.378943
C74	C	0.274037	0.008430	0.258541
C75	C	0.458445	0.000487	0.385704
C76	C	0.327002	0.001126	0.265960
C77	C	0.486717	0.240288	0.412767
C78	C	0.351529	0.011494	0.293799
C79	C	0.342454	0.134735	0.378526
C80	C	0.487067	0.119611	0.258189
C81	C	0.369376	0.152751	0.399768
C82	C	0.004565	0.098085	0.277477
C83	C	0.384256	0.222153	0.400387
C84	C	0.248612	0.027024	0.278662
C85	C	0.462247	0.221040	0.432258
C86	C	0.322906	0.029477	0.313605
C87	C	0.300038	0.150626	0.436461
C88	C	0.425157	0.097825	0.306090
C89	C	0.272720	0.131650	0.417420
C90	C	0.403170	0.118097	0.285660
C91	C	0.293865	0.124017	0.387524
C92	C	0.435398	0.129715	0.262448
C93	C	0.480490	0.021713	0.365271
C94	C	0.359635	0.232950	0.495541
C95	C	0.266165	0.104100	0.366711
C96	C	0.415175	0.152441	0.493287
H41	H	0.109086	0.004504	0.366496
H42	H	0.251800	0.000413	0.487780
H43	H	0.026804	0.246980	0.419256
H44	H	0.148384	0.249751	0.289384
H45	H	0.112166	0.114000	0.371526
H46	H	0.013638	0.128035	0.490338
H47	H	0.043485	0.088925	0.273843
H48	H	0.084854	0.214359	0.399123
H49	H	0.208118	0.033861	0.273074
H50	H	0.106699	0.034226	0.323661
H51	H	0.025542	0.167741	0.455304
H52	H	0.235867	0.123184	0.426297
H53	H	0.101494	0.128401	0.284435
H54	H	0.383628	0.246879	0.357808
H55	H	0.001441	0.247534	0.481798
H56	H	0.263952	0.004041	0.415862
H57	H	0.391902	0.005876	0.301478
H58	H	0.361756	0.129501	0.355945
H59	H	0.255702	0.124931	0.488808
H60	H	0.279313	0.086704	0.275719
H61	H	0.483490	0.212569	0.453146
H62	H	0.284065	0.157319	0.459437
H63	H	0.475033	0.129696	0.431235
H64	H	0.362710	0.125183	0.289899
H65	H	0.227222	0.193297	0.460295
H66	H	0.277971	0.217025	0.456148
H67	H	0.438354	0.046178	0.282365
H68	H	0.431420	0.020303	0.253125
H69	H	0.187577	0.167428	0.407807
H70	H	0.185971	0.139688	0.381350
H71	H	0.136650	0.072209	0.337788
H72	H	0.087842	0.095837	0.327686
H73	H	0.315871	0.200791	0.409863
H74	H	0.312190	0.222099	0.376017
H75	H	0.323978	0.050162	0.356223
H76	H	0.386703	0.035626	0.344759
H77	H	0.440454	0.172152	0.408655
H78	H	0.436824	0.153077	0.373050
H79	H	0.418864	0.079355	0.350100
H80	H	0.358122	0.093074	0.334960
N17	N	0.157624	0.211851	0.423326
N18	N	0.035555	0.036063	0.296994
N19	N	0.092239	0.162594	0.427295
N20	N	0.206990	0.086620	0.298785
N21	N	0.412087	0.212115	0.426860
N22	N	0.271846	0.037594	0.305397
N23	N	0.346884	0.161603	0.428046
N24	N	0.475452	0.087389	0.301303
N25	N	0.241431	0.209546	0.447837
N26	N	0.455392	0.033251	0.266536
N27	N	0.166209	0.153292	0.395327
N28	N	0.124102	0.087485	0.322773
N29	N	0.333761	0.214238	0.394975
N30	N	0.345703	0.038756	0.340759
N31	N	0.418112	0.161400	0.392284
N32	N	0.398232	0.088631	0.331313
Ni5	Ni	0.127975	0.187907	0.456819
Ni6	Ni	0.236388	0.064270	0.333220
Ni7	Ni	0.381478	0.187527	0.459143
Ni8	Ni	0.007236	0.059131	0.330967
O17	O	0.036017	0.085852	0.358209
O18	O	0.189378	0.162750	0.467379
O19	O	0.175717	0.041254	0.347174
O20	O	0.069430	0.212584	0.466272
O21	O	0.217058	0.098908	0.368956
O22	O	0.114018	0.163073	0.493014
O23	O	0.028025	0.030294	0.367069
O24	O	0.147107	0.215946	0.490618
O25	O	0.293126	0.090740	0.345351
O26	O	0.443045	0.164184	0.471321
O27	O	0.449850	0.033712	0.343620
O28	O	0.335663	0.215189	0.477243
O29	O	0.463214	0.090482	0.388487
O30	O	0.368357	0.162338	0.496749
O31	O	0.251330	0.041705	0.373951
O32	O	0.409415	0.234955	0.496760
C97	C	0.138189	0.245939	0.633402
C98	C	0.026780	0.005358	0.501329
C99	C	0.188739	0.007431	0.638665
C100	C	0.078154	0.246172	0.507544
C101	C	0.224213	0.245862	0.661017
C102	C	0.108361	0.006830	0.533388
C103	C	0.090063	0.125537	0.639120
C104	C	0.226941	0.117705	0.506124
C105	C	0.116548	0.147442	0.654100
C106	C	0.240305	0.096296	0.526517
C107	C	0.124343	0.223348	0.651501
C108	C	0.005669	0.025330	0.521748
C109	C	0.208168	0.222509	0.677743
C110	C	0.085003	0.026544	0.552523
C111	C	0.042730	0.155874	0.686100
C112	C	0.156967	0.097792	0.551187
C113	C	0.014443	0.134352	0.672427
C114	C	0.141001	0.119669	0.531613
C115	C	0.038503	0.119342	0.648159
C116	C	0.176756	0.129624	0.509343
C117	C	0.205358	0.030812	0.620059
C118	C	0.099115	0.224594	0.737793
C119	C	0.009469	0.097209	0.631530
C120	C	0.160078	0.152411	0.739653
C121	C	0.407421	0.240725	0.628943
C122	C	0.274037	0.008430	0.508541
C123	C	0.458445	0.000487	0.635704
C124	C	0.327002	0.001126	0.515961
C125	C	0.486717	0.240288	0.662767
C126	C	0.351529	0.011494	0.543799
C127	C	0.342454	0.134735	0.628526
C128	C	0.487067	0.119611	0.508189
C129	C	0.369376	0.152751	0.649768
C130	C	0.004565	0.098085	0.527477
C131	C	0.384256	0.222153	0.650387
C132	C	0.248612	0.027024	0.528662
C133	C	0.462247	0.221040	0.682258
C134	C	0.322906	0.029477	0.563605
C135	C	0.300038	0.150626	0.686461
C136	C	0.425157	0.097825	0.556090
C137	C	0.272720	0.131650	0.667420
C138	C	0.403170	0.118097	0.535659
C139	C	0.293865	0.124017	0.637525
C140	C	0.435398	0.129715	0.512447
C141	C	0.480490	0.021713	0.615271
C142	C	0.359635	0.232950	0.745541
C143	C	0.266165	0.104100	0.616711
C144	C	0.415175	0.152441	0.743287
H81	H	0.109086	0.004504	0.616496
H82	H	0.251800	0.000413	0.737780
H83	H	0.026804	0.246980	0.669256
H84	H	0.148384	0.249751	0.539384
H85	H	0.112166	0.114000	0.621526
H86	H	0.013638	0.128035	0.740338
H87	H	0.043485	0.088925	0.523843
H88	H	0.084854	0.214359	0.649123
H89	H	0.208118	0.033861	0.523074
H90	H	0.106699	0.034226	0.573661
H91	H	0.025542	0.167741	0.705304
H92	H	0.235867	0.123184	0.676297
H93	H	0.101494	0.128401	0.534435
H94	H	0.383628	0.246879	0.607808
H95	H	0.001441	0.247534	0.731798
H96	H	0.263952	0.004041	0.665862
H97	H	0.391902	0.005876	0.551477
H98	H	0.361756	0.129501	0.605945
H99	H	0.255702	0.124931	0.738808
H100	H	0.279313	0.086704	0.525719
H101	H	0.483490	0.212569	0.703146
H102	H	0.284065	0.157319	0.709437
H103	H	0.475033	0.129696	0.681235
H104	H	0.362710	0.125183	0.539899
H105	H	0.227222	0.193297	0.710295
H106	H	0.277971	0.217025	0.706148
H107	H	0.438354	0.046178	0.532365
H108	H	0.431420	0.020303	0.503125
H109	H	0.187577	0.167428	0.657807
H110	H	0.185971	0.139688	0.631350
H111	H	0.136650	0.072209	0.587788
H112	H	0.087842	0.095837	0.577685
H113	H	0.315871	0.200791	0.659863
H114	H	0.312190	0.222099	0.626017
H115	H	0.323978	0.050162	0.606223
H116	H	0.386703	0.035626	0.594759
H117	H	0.440454	0.172152	0.658655
H118	H	0.436824	0.153077	0.623050
H119	H	0.418864	0.079355	0.600100
H120	H	0.358122	0.093074	0.584960
N33	N	0.157624	0.211851	0.673326
N34	N	0.035555	0.036063	0.546994
N35	N	0.092239	0.162594	0.677296
N36	N	0.206990	0.086620	0.548786
N37	N	0.412087	0.212115	0.676860
N38	N	0.271846	0.037594	0.555397
N39	N	0.346884	0.161603	0.678046
N40	N	0.475452	0.087389	0.551303
N41	N	0.241431	0.209546	0.697837
N42	N	0.455392	0.033251	0.516536
N43	N	0.166209	0.153292	0.645327
N44	N	0.124102	0.087485	0.572773
N45	N	0.333761	0.214238	0.644975
N46	N	0.345703	0.038756	0.590759
N47	N	0.418112	0.161400	0.642284
N48	N	0.398232	0.088631	0.581313
Ni9	Ni	0.127975	0.187907	0.706819
Ni10	Ni	0.236388	0.064270	0.583220
Ni11	Ni	0.381478	0.187527	0.709143
Ni12	Ni	0.007236	0.059131	0.580967
O33	O	0.036017	0.085852	0.608209
O34	O	0.189378	0.162750	0.717379
O35	O	0.175717	0.041254	0.597174
O36	O	0.069430	0.212584	0.716272
O37	O	0.217058	0.098908	0.618956
O38	O	0.114018	0.163073	0.743014
O39	O	0.028025	0.030294	0.617069
O40	O	0.147107	0.215946	0.740618
O41	O	0.293126	0.090740	0.595351
O42	O	0.443045	0.164184	0.721321
O43	O	0.449850	0.033712	0.593620
O44	O	0.335663	0.215189	0.727243
O45	O	0.463214	0.090482	0.638487
O46	O	0.368357	0.162338	0.746749
O47	O	0.251330	0.041705	0.623951
O48	O	0.409415	0.234955	0.746760
C145	C	0.138189	0.245939	0.883402
C146	C	0.026780	0.005358	0.751329
C147	C	0.188739	0.007431	0.888665
C148	C	0.078154	0.246172	0.757544
C149	C	0.224213	0.245862	0.911017
C150	C	0.108361	0.006830	0.783388
C151	C	0.090063	0.125537	0.889120
C152	C	0.226941	0.117705	0.756124
C153	C	0.116548	0.147442	0.904100
C154	C	0.240305	0.096296	0.776517
C155	C	0.124343	0.223348	0.901501
C156	C	0.005669	0.025330	0.771748
C157	C	0.208168	0.222509	0.927743
C158	C	0.085003	0.026544	0.802523
C159	C	0.042730	0.155874	0.936100
C160	C	0.156967	0.097792	0.801187
C161	C	0.014443	0.134352	0.922427
C162	C	0.141001	0.119669	0.781613
C163	C	0.038503	0.119342	0.898159
C164	C	0.176756	0.129624	0.759343
C165	C	0.205358	0.030812	0.870059
C166	C	0.099115	0.224594	0.987793
C167	C	0.009469	0.097209	0.881530
C168	C	0.160078	0.152411	0.989653
C169	C	0.407421	0.240725	0.878943
C170	C	0.274037	0.008430	0.758541
C171	C	0.458445	0.000487	0.885704
C172	C	0.327002	0.001126	0.765961
C173	C	0.486717	0.240288	0.912767
C174	C	0.351529	0.011494	0.793799
C175	C	0.342454	0.134735	0.878526
C176	C	0.487067	0.119611	0.758189
C177	C	0.369376	0.152751	0.899768
C178	C	0.004565	0.098085	0.777477
C179	C	0.384256	0.222153	0.900387
C180	C	0.248612	0.027024	0.778662
C181	C	0.462247	0.221040	0.932258
C182	C	0.322906	0.029477	0.813605
C183	C	0.300038	0.150626	0.936461
C184	C	0.425157	0.097825	0.806090
C185	C	0.272720	0.131650	0.917420
C186	C	0.403170	0.118097	0.785659
C187	C	0.293865	0.124017	0.887525
C188	C	0.435398	0.129715	0.762447
C189	C	0.480490	0.021713	0.865271
C190	C	0.359635	0.232950	0.995541
C191	C	0.266165	0.104100	0.866711
C192	C	0.415175	0.152441	0.993287
H121	H	0.109086	0.004504	0.866496
H122	H	0.251800	0.000413	0.987780
H123	H	0.026804	0.246980	0.919256
H124	H	0.148384	0.249751	0.789384
H125	H	0.112166	0.114000	0.871526
H126	H	0.013638	0.128035	0.990338
H127	H	0.043485	0.088925	0.773843
H128	H	0.084854	0.214359	0.899123
H129	H	0.208118	0.033861	0.773074
H130	H	0.106699	0.034226	0.823661
H131	H	0.025542	0.167741	0.955304
H132	H	0.235867	0.123184	0.926297
H133	H	0.101494	0.128401	0.784435
H134	H	0.383628	0.246879	0.857808
H135	H	0.001441	0.247534	0.981798
H136	H	0.263952	0.004041	0.915862
H137	H	0.391902	0.005876	0.801477
H138	H	0.361756	0.129501	0.855945
H139	H	0.255702	0.124931	0.988808
H140	H	0.279313	0.086704	0.775719
H141	H	0.483490	0.212569	0.953146
H142	H	0.284065	0.157319	0.959437
H143	H	0.475033	0.129696	0.931235
H144	H	0.362710	0.125183	0.789899
H145	H	0.227222	0.193297	0.960295
H146	H	0.277971	0.217025	0.956148
H147	H	0.438354	0.046178	0.782365
H148	H	0.431420	0.020303	0.753125
H149	H	0.187577	0.167428	0.907807
H150	H	0.185971	0.139688	0.881350
H151	H	0.136650	0.072209	0.837788
H152	H	0.087842	0.095837	0.827685
H153	H	0.315871	0.200791	0.909863
H154	H	0.312190	0.222099	0.876017
H155	H	0.323978	0.050162	0.856223
H156	H	0.386703	0.035626	0.844759
H157	H	0.440454	0.172152	0.908655
H158	H	0.436824	0.153077	0.873050
H159	H	0.418864	0.079355	0.850100
H160	H	0.358122	0.093074	0.834960
N49	N	0.157624	0.211851	0.923326
N50	N	0.035555	0.036063	0.796994
N51	N	0.092239	0.162594	0.927296
N52	N	0.206990	0.086620	0.798786
N53	N	0.412087	0.212115	0.926860
N54	N	0.271846	0.037594	0.805397
N55	N	0.346884	0.161603	0.928046
N56	N	0.475452	0.087389	0.801303
N57	N	0.241431	0.209546	0.947837
N58	N	0.455392	0.033251	0.766536
N59	N	0.166209	0.153292	0.895327
N60	N	0.124102	0.087485	0.822773
N61	N	0.333761	0.214238	0.894975
N62	N	0.345703	0.038756	0.840759
N63	N	0.418112	0.161400	0.892284
N64	N	0.398232	0.088631	0.831313
Ni13	Ni	0.127975	0.187907	0.956819
Ni14	Ni	0.236388	0.064270	0.833220
Ni15	Ni	0.381478	0.187527	0.959143
Ni16	Ni	0.007236	0.059131	0.830967
O49	O	0.036017	0.085852	0.858209
O50	O	0.189378	0.162750	0.967379
O51	O	0.175717	0.041254	0.847174
O52	O	0.069430	0.212584	0.966272
O53	O	0.217058	0.098908	0.868956
O54	O	0.114018	0.163073	0.993014
O55	O	0.028025	0.030294	0.867069
O56	O	0.147107	0.215946	0.990618
O57	O	0.293126	0.090740	0.845351
O58	O	0.443045	0.164184	0.971321
O59	O	0.449850	0.033712	0.843620
O60	O	0.335663	0.215189	0.977243
O61	O	0.463214	0.090482	0.888487
O62	O	0.368357	0.162338	0.996749
O63	O	0.251330	0.041705	0.873951
O64	O	0.409415	0.234955	0.996760
C193	C	0.138189	0.495939	0.133402
C194	C	0.026780	0.255358	0.001329
C195	C	0.188739	0.257431	0.138665
C196	C	0.078154	0.496172	0.007544
C197	C	0.224213	0.495862	0.161017
C198	C	0.108361	0.256830	0.033388
C199	C	0.090063	0.375537	0.139120
C200	C	0.226941	0.367705	0.006124
C201	C	0.116548	0.397442	0.154100
C202	C	0.240305	0.346296	0.026516
C203	C	0.124343	0.473348	0.151501
C204	C	0.005669	0.275330	0.021749
C205	C	0.208168	0.472509	0.177743
C206	C	0.085003	0.276543	0.052523
C207	C	0.042730	0.405874	0.186100
C208	C	0.156967	0.347792	0.051187
C209	C	0.014443	0.384352	0.172427
C210	C	0.141001	0.369669	0.031613
C211	C	0.038503	0.369341	0.148159
C212	C	0.176756	0.379624	0.009343
C213	C	0.205358	0.280812	0.120059
C214	C	0.099115	0.474594	0.237793
C215	C	0.009469	0.347209	0.131530
C216	C	0.160078	0.402411	0.239653
C217	C	0.407421	0.490725	0.128943
C218	C	0.274037	0.258430	0.008542
C219	C	0.458445	0.250487	0.135704
C220	C	0.327002	0.251126	0.015960
C221	C	0.486717	0.490288	0.162767
C222	C	0.351529	0.261494	0.043799
C223	C	0.342454	0.384735	0.128526
C224	C	0.487067	0.369611	0.008189
C225	C	0.369376	0.402751	0.149768
C226	C	0.004565	0.348085	0.027477
C227	C	0.384256	0.472153	0.150387
C228	C	0.248612	0.277024	0.028662
C229	C	0.462247	0.471040	0.182258
C230	C	0.322906	0.279477	0.063605
C231	C	0.300038	0.400626	0.186461
C232	C	0.425157	0.347825	0.056090
C233	C	0.272720	0.381650	0.167420
C234	C	0.403170	0.368097	0.035659
C235	C	0.293865	0.374016	0.137524
C236	C	0.435398	0.379715	0.012448
C237	C	0.480490	0.271713	0.115271
C238	C	0.359635	0.482950	0.245541
C239	C	0.266165	0.354100	0.116711
C240	C	0.415175	0.402441	0.243287
H161	H	0.109086	0.254504	0.116496
H162	H	0.251800	0.250413	0.237780
H163	H	0.026804	0.496980	0.169256
H164	H	0.148384	0.499752	0.039384
H165	H	0.112166	0.364000	0.121526
H166	H	0.013638	0.378035	0.240338
H167	H	0.043485	0.338925	0.023843
H168	H	0.084854	0.464359	0.149123
H169	H	0.208118	0.283861	0.023074
H170	H	0.106699	0.284226	0.073661
H171	H	0.025542	0.417741	0.205304
H172	H	0.235867	0.373184	0.176297
H173	H	0.101494	0.378401	0.034435
H174	H	0.383628	0.496879	0.107808
H175	H	0.001441	0.497534	0.231798
H176	H	0.263952	0.254041	0.165862
H177	H	0.391902	0.255876	0.051478
H178	H	0.361756	0.379501	0.105945
H179	H	0.255702	0.374931	0.238808
H180	H	0.279313	0.336704	0.025719
H181	H	0.483490	0.462569	0.203146
H182	H	0.284065	0.407319	0.209437
H183	H	0.475033	0.379696	0.181235
H184	H	0.362710	0.375183	0.039899
H185	H	0.227222	0.443297	0.210295
H186	H	0.277971	0.467025	0.206148
H187	H	0.438354	0.296178	0.032365
H188	H	0.431420	0.270303	0.003125
H189	H	0.187577	0.417428	0.157807
H190	H	0.185971	0.389688	0.131350
H191	H	0.136650	0.322209	0.087788
H192	H	0.087842	0.345837	0.077686
H193	H	0.315871	0.450791	0.159862
H194	H	0.312190	0.472099	0.126017
H195	H	0.323978	0.300162	0.106223
H196	H	0.386703	0.285626	0.094759
H197	H	0.440454	0.422152	0.158655
H198	H	0.436824	0.403077	0.123050
H199	H	0.418864	0.329355	0.100100
H200	H	0.358122	0.343074	0.084960
N65	N	0.157624	0.461851	0.173325
N66	N	0.035555	0.286063	0.046994
N67	N	0.092239	0.412594	0.177295
N68	N	0.206990	0.336620	0.048786
N69	N	0.412087	0.462114	0.176860
N70	N	0.271846	0.287594	0.055397
N71	N	0.346884	0.411603	0.178046
N72	N	0.475452	0.337389	0.051303
N73	N	0.241431	0.459546	0.197837
N74	N	0.455392	0.283251	0.016536
N75	N	0.166209	0.403292	0.145327
N76	N	0.124102	0.337485	0.072773
N77	N	0.333761	0.464238	0.144975
N78	N	0.345703	0.288756	0.090760
N79	N	0.418112	0.411400	0.142284
N80	N	0.398232	0.338631	0.081313
Ni17	Ni	0.127975	0.437907	0.206819
Ni18	Ni	0.236388	0.314271	0.083220
Ni19	Ni	0.381478	0.437527	0.209143
Ni20	Ni	0.007236	0.309130	0.080967
O65	O	0.036017	0.335852	0.108209
O66	O	0.189378	0.412751	0.217379
O67	O	0.175717	0.291254	0.097173
O68	O	0.069430	0.462584	0.216272
O69	O	0.217058	0.348909	0.118956
O70	O	0.114018	0.413073	0.243014
O71	O	0.028025	0.280293	0.117069
O72	O	0.147107	0.465946	0.240618
O73	O	0.293126	0.340739	0.095351
O74	O	0.443045	0.414184	0.221321
O75	O	0.449850	0.283712	0.093620
O76	O	0.335663	0.465189	0.227242
O77	O	0.463214	0.340481	0.138487
O78	O	0.368357	0.412338	0.246749
O79	O	0.251330	0.291705	0.123951
O80	O	0.409415	0.484955	0.246760
C241	C	0.138189	0.495939	0.383402
C242	C	0.026780	0.255358	0.251329
C243	C	0.188739	0.257431	0.388665
C244	C	0.078154	0.496172	0.257545
C245	C	0.224213	0.495862	0.411017
C246	C	0.108361	0.256830	0.283388
C247	C	0.090063	0.375537	0.389120
C248	C	0.226941	0.367705	0.256124
C249	C	0.116548	0.397442	0.404100
C250	C	0.240305	0.346296	0.276516
C251	C	0.124343	0.473348	0.401501
C252	C	0.005669	0.275330	0.271749
C253	C	0.208168	0.472509	0.427743
C254	C	0.085003	0.276543	0.302523
C255	C	0.042730	0.405874	0.436100
C256	C	0.156967	0.347792	0.301187
C257	C	0.014443	0.384352	0.422427
C258	C	0.141001	0.369669	0.281613
C259	C	0.038503	0.369341	0.398159
C260	C	0.176756	0.379624	0.259344
C261	C	0.205358	0.280812	0.370059
C262	C	0.099115	0.474594	0.487793
C263	C	0.009469	0.347209	0.381530
C264	C	0.160078	0.402411	0.489653
C265	C	0.407421	0.490725	0.378943
C266	C	0.274037	0.258430	0.258541
C267	C	0.458445	0.250487	0.385704
C268	C	0.327002	0.251126	0.265960
C269	C	0.486717	0.490288	0.412767
C270	C	0.351529	0.261494	0.293799
C271	C	0.342454	0.384735	0.378526
C272	C	0.487067	0.369611	0.258189
C273	C	0.369376	0.402751	0.399768
C274	C	0.004565	0.348085	0.277477
C275	C	0.384256	0.472153	0.400387
C276	C	0.248612	0.277024	0.278662
C277	C	0.462247	0.471040	0.432258
C278	C	0.322906	0.279477	0.313605
C279	C	0.300038	0.400626	0.436461
C280	C	0.425157	0.347825	0.306090
C281	C	0.272720	0.381650	0.417420
C282	C	0.403170	0.368097	0.285660
C283	C	0.293865	0.374016	0.387524
C284	C	0.435398	0.379715	0.262448
C285	C	0.480490	0.271713	0.365271
C286	C	0.359635	0.482950	0.495541
C287	C	0.266165	0.354100	0.366711
C288	C	0.415175	0.402441	0.493287
H201	H	0.109086	0.254504	0.366496
H202	H	0.251800	0.250413	0.487780
H203	H	0.026804	0.496980	0.419256
H204	H	0.148384	0.499752	0.289384
H205	H	0.112166	0.364000	0.371526
H206	H	0.013638	0.378035	0.490338
H207	H	0.043485	0.338925	0.273843
H208	H	0.084854	0.464359	0.399123
H209	H	0.208118	0.283861	0.273074
H210	H	0.106699	0.284226	0.323661
H211	H	0.025542	0.417741	0.455304
H212	H	0.235867	0.373184	0.426297
H213	H	0.101494	0.378401	0.284435
H214	H	0.383628	0.496879	0.357808
H215	H	0.001441	0.497534	0.481798
H216	H	0.263952	0.254041	0.415862
H217	H	0.391902	0.255876	0.301478
H218	H	0.361756	0.379501	0.355945
H219	H	0.255702	0.374931	0.488808
H220	H	0.279313	0.336704	0.275719
H221	H	0.483490	0.462569	0.453146
H222	H	0.284065	0.407319	0.459437
H223	H	0.475033	0.379696	0.431235
H224	H	0.362710	0.375183	0.289899
H225	H	0.227222	0.443297	0.460295
H226	H	0.277971	0.467025	0.456148
H227	H	0.438354	0.296178	0.282365
H228	H	0.431420	0.270303	0.253125
H229	H	0.187577	0.417428	0.407807
H230	H	0.185971	0.389688	0.381350
H231	H	0.136650	0.322209	0.337788
H232	H	0.087842	0.345837	0.327686
H233	H	0.315871	0.450791	0.409863
H234	H	0.312190	0.472099	0.376017
H235	H	0.323978	0.300162	0.356223
H236	H	0.386703	0.285626	0.344759
H237	H	0.440454	0.422152	0.408655
H238	H	0.436824	0.403077	0.373050
H239	H	0.418864	0.329355	0.350100
H240	H	0.358122	0.343074	0.334960
N81	N	0.157624	0.461851	0.423326
N82	N	0.035555	0.286063	0.296994
N83	N	0.092239	0.412594	0.427295
N84	N	0.206990	0.336620	0.298785
N85	N	0.412087	0.462114	0.426860
N86	N	0.271846	0.287594	0.305397
N87	N	0.346884	0.411603	0.428046
N88	N	0.475452	0.337389	0.301303
N89	N	0.241431	0.459546	0.447837
N90	N	0.455392	0.283251	0.266536
N91	N	0.166209	0.403292	0.395327
N92	N	0.124102	0.337485	0.322773
N93	N	0.333761	0.464238	0.394975
N94	N	0.345703	0.288756	0.340759
N95	N	0.418112	0.411400	0.392284
N96	N	0.398232	0.338631	0.331313
Ni21	Ni	0.127975	0.437907	0.456819
Ni22	Ni	0.236388	0.314271	0.333220
Ni23	Ni	0.381478	0.437527	0.459143
Ni24	Ni	0.007236	0.309130	0.330967
O81	O	0.036017	0.335852	0.358209
O82	O	0.189378	0.412751	0.467379
O83	O	0.175717	0.291254	0.347174
O84	O	0.069430	0.462584	0.466272
O85	O	0.217058	0.348909	0.368956
O86	O	0.114018	0.413073	0.493014
O87	O	0.028025	0.280293	0.367069
O88	O	0.147107	0.465946	0.490618
O89	O	0.293126	0.340739	0.345351
O90	O	0.443045	0.414184	0.471321
O91	O	0.449850	0.283712	0.343620
O92	O	0.335663	0.465189	0.477243
O93	O	0.463214	0.340481	0.388487
O94	O	0.368357	0.412338	0.496749
O95	O	0.251330	0.291705	0.373951
O96	O	0.409415	0.484955	0.496760
C289	C	0.138189	0.495939	0.633402
C290	C	0.026780	0.255358	0.501329
C291	C	0.188739	0.257431	0.638665
C292	C	0.078154	0.496172	0.507544
C293	C	0.224213	0.495862	0.661017
C294	C	0.108361	0.256830	0.533388
C295	C	0.090063	0.375537	0.639120
C296	C	0.226941	0.367705	0.506124
C297	C	0.116548	0.397442	0.654100
C298	C	0.240305	0.346296	0.526517
C299	C	0.124343	0.473348	0.651501
C300	C	0.005669	0.275330	0.521748
C301	C	0.208168	0.472509	0.677743
C302	C	0.085003	0.276543	0.552523
C303	C	0.042730	0.405874	0.686100
C304	C	0.156967	0.347792	0.551187
C305	C	0.014443	0.384352	0.672427
C306	C	0.141001	0.369669	0.531613
C307	C	0.038503	0.369341	0.648159
C308	C	0.176756	0.379624	0.509343
C309	C	0.205358	0.280812	0.620059
C310	C	0.099115	0.474594	0.737793
C311	C	0.009469	0.347209	0.631530
C312	C	0.160078	0.402411	0.739653
C313	C	0.407421	0.490725	0.628943
C314	C	0.274037	0.258430	0.508541
C315	C	0.458445	0.250487	0.635704
C316	C	0.327002	0.251126	0.515961
C317	C	0.486717	0.490288	0.662767
C318	C	0.351529	0.261494	0.543799
C319	C	0.342454	0.384735	0.628526
C320	C	0.487067	0.369611	0.508189
C321	C	0.369376	0.402751	0.649768
C322	C	0.004565	0.348085	0.527477
C323	C	0.384256	0.472153	0.650387
C324	C	0.248612	0.277024	0.528662
C325	C	0.462247	0.471040	0.682258
C326	C	0.322906	0.279477	0.563605
C327	C	0.300038	0.400626	0.686461
C328	C	0.425157	0.347825	0.556090
C329	C	0.272720	0.381650	0.667420
C330	C	0.403170	0.368097	0.535659
C331	C	0.293865	0.374016	0.637525
C332	C	0.435398	0.379715	0.512447
C333	C	0.480490	0.271713	0.615271
C334	C	0.359635	0.482950	0.745541
C335	C	0.266165	0.354100	0.616711
C336	C	0.415175	0.402441	0.743287
H241	H	0.109086	0.254504	0.616496
H242	H	0.251800	0.250413	0.737780
H243	H	0.026804	0.496980	0.669256
H244	H	0.148384	0.499752	0.539384
H245	H	0.112166	0.364000	0.621526
H246	H	0.013638	0.378035	0.740338
H247	H	0.043485	0.338925	0.523843
H248	H	0.084854	0.464359	0.649123
H249	H	0.208118	0.283861	0.523074
H250	H	0.106699	0.284226	0.573661
H251	H	0.025542	0.417741	0.705304
H252	H	0.235867	0.373184	0.676297
H253	H	0.101494	0.378401	0.534435
H254	H	0.383628	0.496879	0.607808
H255	H	0.001441	0.497534	0.731798
H256	H	0.263952	0.254041	0.665862
H257	H	0.391902	0.255876	0.551477
H258	H	0.361756	0.379501	0.605945
H259	H	0.255702	0.374931	0.738808
H260	H	0.279313	0.336704	0.525719
H261	H	0.483490	0.462569	0.703146
H262	H	0.284065	0.407319	0.709437
H263	H	0.475033	0.379696	0.681235
H264	H	0.362710	0.375183	0.539899
H265	H	0.227222	0.443297	0.710295
H266	H	0.277971	0.467025	0.706148
H267	H	0.438354	0.296178	0.532365
H268	H	0.431420	0.270303	0.503125
H269	H	0.187577	0.417428	0.657807
H270	H	0.185971	0.389688	0.631350
H271	H	0.136650	0.322209	0.587788
H272	H	0.087842	0.345837	0.577685
H273	H	0.315871	0.450791	0.659863
H274	H	0.312190	0.472099	0.626017
H275	H	0.323978	0.300162	0.606223
H276	H	0.386703	0.285626	0.594759
H277	H	0.440454	0.422152	0.658655
H278	H	0.436824	0.403077	0.623050
H279	H	0.418864	0.329355	0.600100
H280	H	0.358122	0.343074	0.584960
N97	N	0.157624	0.461851	0.673326
N98	N	0.035555	0.286063	0.546994
N99	N	0.092239	0.412594	0.677296
N100	N	0.206990	0.336620	0.548786
N101	N	0.412087	0.462114	0.676860
N102	N	0.271846	0.287594	0.555397
N103	N	0.346884	0.411603	0.678046
N104	N	0.475452	0.337389	0.551303
N105	N	0.241431	0.459546	0.697837
N106	N	0.455392	0.283251	0.516536
N107	N	0.166209	0.403292	0.645327
N108	N	0.124102	0.337485	0.572773
N109	N	0.333761	0.464238	0.644975
N110	N	0.345703	0.288756	0.590759
N111	N	0.418112	0.411400	0.642284
N112	N	0.398232	0.338631	0.581313
Ni25	Ni	0.127975	0.437907	0.706819
Ni26	Ni	0.236388	0.314271	0.583220
Ni27	Ni	0.381478	0.437527	0.709143
Ni28	Ni	0.007236	0.309130	0.580967
O97	O	0.036017	0.335852	0.608209
O98	O	0.189378	0.412751	0.717379
O99	O	0.175717	0.291254	0.597174
O100	O	0.069430	0.462584	0.716272
O101	O	0.217058	0.348909	0.618956
O102	O	0.114018	0.413073	0.743014
O103	O	0.028025	0.280293	0.617069
O104	O	0.147107	0.465946	0.740618
O105	O	0.293126	0.340739	0.595351
O106	O	0.443045	0.414184	0.721321
O107	O	0.449850	0.283712	0.593620
O108	O	0.335663	0.465189	0.727243
O109	O	0.463214	0.340481	0.638487
O110	O	0.368357	0.412338	0.746749
O111	O	0.251330	0.291705	0.623951
O112	O	0.409415	0.484955	0.746760
C337	C	0.138189	0.495939	0.883402
C338	C	0.026780	0.255358	0.751329
C339	C	0.188739	0.257431	0.888665
C340	C	0.078154	0.496172	0.757544
C341	C	0.224213	0.495862	0.911017
C342	C	0.108361	0.256830	0.783388
C343	C	0.090063	0.375537	0.889120
C344	C	0.226941	0.367705	0.756124
C345	C	0.116548	0.397442	0.904100
C346	C	0.240305	0.346296	0.776517
C347	C	0.124343	0.473348	0.901501
C348	C	0.005669	0.275330	0.771748
C349	C	0.208168	0.472509	0.927743
C350	C	0.085003	0.276543	0.802523
C351	C	0.042730	0.405874	0.936100
C352	C	0.156967	0.347792	0.801187
C353	C	0.014443	0.384352	0.922427
C354	C	0.141001	0.369669	0.781613
C355	C	0.038503	0.369341	0.898159
C356	C	0.176756	0.379624	0.759343
C357	C	0.205358	0.280812	0.870059
C358	C	0.099115	0.474594	0.987793
C359	C	0.009469	0.347209	0.881530
C360	C	0.160078	0.402411	0.989653
C361	C	0.407421	0.490725	0.878943
C362	C	0.274037	0.258430	0.758541
C363	C	0.458445	0.250487	0.885704
C364	C	0.327002	0.251126	0.765961
C365	C	0.486717	0.490288	0.912767
C366	C	0.351529	0.261494	0.793799
C367	C	0.342454	0.384735	0.878526
C368	C	0.487067	0.369611	0.758189
C369	C	0.369376	0.402751	0.899768
C370	C	0.004565	0.348085	0.777477
C371	C	0.384256	0.472153	0.900387
C372	C	0.248612	0.277024	0.778662
C373	C	0.462247	0.471040	0.932258
C374	C	0.322906	0.279477	0.813605
C375	C	0.300038	0.400626	0.936461
C376	C	0.425157	0.347825	0.806090
C377	C	0.272720	0.381650	0.917420
C378	C	0.403170	0.368097	0.785659
C379	C	0.293865	0.374016	0.887525
C380	C	0.435398	0.379715	0.762447
C381	C	0.480490	0.271713	0.865271
C382	C	0.359635	0.482950	0.995541
C383	C	0.266165	0.354100	0.866711
C384	C	0.415175	0.402441	0.993287
H281	H	0.109086	0.254504	0.866496
H282	H	0.251800	0.250413	0.987780
H283	H	0.026804	0.496980	0.919256
H284	H	0.148384	0.499752	0.789384
H285	H	0.112166	0.364000	0.871526
H286	H	0.013638	0.378035	0.990338
H287	H	0.043485	0.338925	0.773843
H288	H	0.084854	0.464359	0.899123
H289	H	0.208118	0.283861	0.773074
H290	H	0.106699	0.284226	0.823661
H291	H	0.025542	0.417741	0.955304
H292	H	0.235867	0.373184	0.926297
H293	H	0.101494	0.378401	0.784435
H294	H	0.383628	0.496879	0.857808
H295	H	0.001441	0.497534	0.981798
H296	H	0.263952	0.254041	0.915862
H297	H	0.391902	0.255876	0.801477
H298	H	0.361756	0.379501	0.855945
H299	H	0.255702	0.374931	0.988808
H300	H	0.279313	0.336704	0.775719
H301	H	0.483490	0.462569	0.953146
H302	H	0.284065	0.407319	0.959437
H303	H	0.475033	0.379696	0.931235
H304	H	0.362710	0.375183	0.789899
H305	H	0.227222	0.443297	0.960295
H306	H	0.277971	0.467025	0.956148
H307	H	0.438354	0.296178	0.782365
H308	H	0.431420	0.270303	0.753125
H309	H	0.187577	0.417428	0.907807
H310	H	0.185971	0.389688	0.881350
H311	H	0.136650	0.322209	0.837788
H312	H	0.087842	0.345837	0.827685
H313	H	0.315871	0.450791	0.909863
H314	H	0.312190	0.472099	0.876017
H315	H	0.323978	0.300162	0.856223
H316	H	0.386703	0.285626	0.844759
H317	H	0.440454	0.422152	0.908655
H318	H	0.436824	0.403077	0.873050
H319	H	0.418864	0.329355	0.850100
H320	H	0.358122	0.343074	0.834960
N113	N	0.157624	0.461851	0.923326
N114	N	0.035555	0.286063	0.796994
N115	N	0.092239	0.412594	0.927296
N116	N	0.206990	0.336620	0.798786
N117	N	0.412087	0.462114	0.926860
N118	N	0.271846	0.287594	0.805397
N119	N	0.346884	0.411603	0.928046
N120	N	0.475452	0.337389	0.801303
N121	N	0.241431	0.459546	0.947837
N122	N	0.455392	0.283251	0.766536
N123	N	0.166209	0.403292	0.895327
N124	N	0.124102	0.337485	0.822773
N125	N	0.333761	0.464238	0.894975
N126	N	0.345703	0.288756	0.840759
N127	N	0.418112	0.411400	0.892284
N128	N	0.398232	0.338631	0.831313
Ni29	Ni	0.127975	0.437907	0.956819
Ni30	Ni	0.236388	0.314271	0.833220
Ni31	Ni	0.381478	0.437527	0.959143
Ni32	Ni	0.007236	0.309130	0.830967
O113	O	0.036017	0.335852	0.858209
O114	O	0.189378	0.412751	0.967379
O115	O	0.175717	0.291254	0.847174
O116	O	0.069430	0.462584	0.966272
O117	O	0.217058	0.348909	0.868956
O118	O	0.114018	0.413073	0.993014
O119	O	0.028025	0.280293	0.867069
O120	O	0.147107	0.465946	0.990618
O121	O	0.293126	0.340739	0.845351
O122	O	0.443045	0.414184	0.971321
O123	O	0.449850	0.283712	0.843620
O124	O	0.335663	0.465189	0.977243
O125	O	0.463214	0.340481	0.888487
O126	O	0.368357	0.412338	0.996749
O127	O	0.251330	0.291705	0.873951
O128	O	0.409415	0.484955	0.996760
C385	C	0.138189	0.745939	0.133402
C386	C	0.026780	0.505358	0.001329
C387	C	0.188739	0.507431	0.138665
C388	C	0.078154	0.746172	0.007544
C389	C	0.224213	0.745861	0.161017
C390	C	0.108361	0.506830	0.033388
C391	C	0.090063	0.625537	0.139120
C392	C	0.226941	0.617705	0.006124
C393	C	0.116548	0.647442	0.154100
C394	C	0.240305	0.596296	0.026516
C395	C	0.124343	0.723348	0.151501
C396	C	0.005669	0.525330	0.021749
C397	C	0.208168	0.722509	0.177743
C398	C	0.085003	0.526544	0.052523
C399	C	0.042730	0.655874	0.186100
C400	C	0.156967	0.597792	0.051187
C401	C	0.014443	0.634352	0.172427
C402	C	0.141001	0.619669	0.031613
C403	C	0.038503	0.619341	0.148159
C404	C	0.176756	0.629624	0.009343
C405	C	0.205358	0.530812	0.120059
C406	C	0.099115	0.724594	0.237793
C407	C	0.009469	0.597209	0.131530
C408	C	0.160078	0.652411	0.239653
C409	C	0.407421	0.740725	0.128943
C410	C	0.274037	0.508430	0.008542
C411	C	0.458445	0.500487	0.135704
C412	C	0.327002	0.501126	0.015960
C413	C	0.486717	0.740288	0.162767
C414	C	0.351529	0.511494	0.043799
C415	C	0.342454	0.634735	0.128526
C416	C	0.487067	0.619611	0.008189
C417	C	0.369376	0.652751	0.149768
C418	C	0.004565	0.598085	0.027477
C419	C	0.384256	0.722153	0.150387
C420	C	0.248612	0.527024	0.028662
C421	C	0.462247	0.721040	0.182258
C422	C	0.322906	0.529477	0.063605
C423	C	0.300038	0.650626	0.186461
C424	C	0.425157	0.597825	0.056090
C425	C	0.272720	0.631650	0.167420
C426	C	0.403170	0.618097	0.035659
C427	C	0.293865	0.624016	0.137524
C428	C	0.435398	0.629715	0.012448
C429	C	0.480490	0.521713	0.115271
C430	C	0.359635	0.732950	0.245541
C431	C	0.266165	0.604100	0.116711
C432	C	0.415175	0.652441	0.243287
H321	H	0.109086	0.504504	0.116496
H322	H	0.251800	0.500413	0.237780
H323	H	0.026804	0.746980	0.169256
H324	H	0.148384	0.749752	0.039384
H325	H	0.112166	0.614000	0.121526
H326	H	0.013638	0.628035	0.240338
H327	H	0.043485	0.588925	0.023843
H328	H	0.084854	0.714359	0.149123
H329	H	0.208118	0.533860	0.023074
H330	H	0.106699	0.534227	0.073661
H331	H	0.025542	0.667741	0.205304
H332	H	0.235867	0.623184	0.176297
H333	H	0.101494	0.628401	0.034435
H334	H	0.383628	0.746879	0.107808
H335	H	0.001441	0.747534	0.231798
H336	H	0.263952	0.504041	0.165862
H337	H	0.391902	0.505876	0.051478
H338	H	0.361756	0.629501	0.105945
H339	H	0.255702	0.624931	0.238808
H340	H	0.279313	0.586704	0.025719
H341	H	0.483490	0.712569	0.203146
H342	H	0.284065	0.657319	0.209437
H343	H	0.475033	0.629696	0.181235
H344	H	0.362710	0.625183	0.039899
H345	H	0.227222	0.693297	0.210295
H346	H	0.277971	0.717024	0.206148
H347	H	0.438354	0.546178	0.032365
H348	H	0.431420	0.520303	0.003125
H349	H	0.187577	0.667428	0.157807
H350	H	0.185971	0.639688	0.131350
H351	H	0.136650	0.572209	0.087788
H352	H	0.087842	0.595837	0.077686
H353	H	0.315871	0.700791	0.159862
H354	H	0.312190	0.722099	0.126017
H355	H	0.323978	0.550162	0.106223
H356	H	0.386703	0.535626	0.094759
H357	H	0.440454	0.672152	0.158655
H358	H	0.436824	0.653077	0.123050
H359	H	0.418864	0.579355	0.100100
H360	H	0.358122	0.593074	0.084960
N129	N	0.157624	0.711851	0.173325
N130	N	0.035555	0.536063	0.046994
N131	N	0.092239	0.662594	0.177295
N132	N	0.206990	0.586620	0.048786
N133	N	0.412087	0.712114	0.176860
N134	N	0.271846	0.537594	0.055397
N135	N	0.346884	0.661603	0.178046
N136	N	0.475452	0.587389	0.051303
N137	N	0.241431	0.709546	0.197837
N138	N	0.455392	0.533251	0.016536
N139	N	0.166209	0.653293	0.145327
N140	N	0.124102	0.587485	0.072773
N141	N	0.333761	0.714238	0.144975
N142	N	0.345703	0.538756	0.090760
N143	N	0.418112	0.661400	0.142284
N144	N	0.398232	0.588631	0.081313
Ni33	Ni	0.127975	0.687907	0.206819
Ni34	Ni	0.236388	0.564271	0.083220
Ni35	Ni	0.381478	0.687527	0.209143
Ni36	Ni	0.007236	0.559130	0.080967
O129	O	0.036017	0.585852	0.108209
O130	O	0.189378	0.662751	0.217379
O131	O	0.175717	0.541254	0.097173
O132	O	0.069430	0.712584	0.216272
O133	O	0.217058	0.598908	0.118956
O134	O	0.114018	0.663073	0.243014
O135	O	0.028025	0.530293	0.117069
O136	O	0.147107	0.715946	0.240618
O137	O	0.293126	0.590739	0.095351
O138	O	0.443045	0.664184	0.221321
O139	O	0.449850	0.533713	0.093620
O140	O	0.335663	0.715189	0.227242
O141	O	0.463214	0.590481	0.138487
O142	O	0.368357	0.662338	0.246749
O143	O	0.251330	0.541705	0.123951
O144	O	0.409415	0.734954	0.246760
C433	C	0.138189	0.745939	0.383402
C434	C	0.026780	0.505358	0.251329
C435	C	0.188739	0.507431	0.388665
C436	C	0.078154	0.746172	0.257545
C437	C	0.224213	0.745861	0.411017
C438	C	0.108361	0.506830	0.283388
C439	C	0.090063	0.625537	0.389120
C440	C	0.226941	0.617705	0.256124
C441	C	0.116548	0.647442	0.404100
C442	C	0.240305	0.596296	0.276516
C443	C	0.124343	0.723348	0.401501
C444	C	0.005669	0.525330	0.271749
C445	C	0.208168	0.722509	0.427743
C446	C	0.085003	0.526544	0.302523
C447	C	0.042730	0.655874	0.436100
C448	C	0.156967	0.597792	0.301187
C449	C	0.014443	0.634352	0.422427
C450	C	0.141001	0.619669	0.281613
C451	C	0.038503	0.619341	0.398159
C452	C	0.176756	0.629624	0.259344
C453	C	0.205358	0.530812	0.370059
C454	C	0.099115	0.724594	0.487793
C455	C	0.009469	0.597209	0.381530
C456	C	0.160078	0.652411	0.489653
C457	C	0.407421	0.740725	0.378943
C458	C	0.274037	0.508430	0.258541
C459	C	0.458445	0.500487	0.385704
C460	C	0.327002	0.501126	0.265960
C461	C	0.486717	0.740288	0.412767
C462	C	0.351529	0.511494	0.293799
C463	C	0.342454	0.634735	0.378526
C464	C	0.487067	0.619611	0.258189
C465	C	0.369376	0.652751	0.399768
C466	C	0.004565	0.598085	0.277477
C467	C	0.384256	0.722153	0.400387
C468	C	0.248612	0.527024	0.278662
C469	C	0.462247	0.721040	0.432258
C470	C	0.322906	0.529477	0.313605
C471	C	0.300038	0.650626	0.436461
C472	C	0.425157	0.597825	0.306090
C473	C	0.272720	0.631650	0.417420
C474	C	0.403170	0.618097	0.285660
C475	C	0.293865	0.624016	0.387524
C476	C	0.435398	0.629715	0.262448
C477	C	0.480490	0.521713	0.365271
C478	C	0.359635	0.732950	0.495541
C479	C	0.266165	0.604100	0.366711
C480	C	0.415175	0.652441	0.493287
H361	H	0.109086	0.504504	0.366496
H362	H	0.251800	0.500413	0.487780
H363	H	0.026804	0.746980	0.419256
H364	H	0.148384	0.749752	0.289384
H365	H	0.112166	0.614000	0.371526
H366	H	0.013638	0.628035	0.490338
H367	H	0.043485	0.588925	0.273843
H368	H	0.084854	0.714359	0.399123
H369	H	0.208118	0.533860	0.273074
H370	H	0.106699	0.534227	0.323661
H371	H	0.025542	0.667741	0.455304
H372	H	0.235867	0.623184	0.426297
H373	H	0.101494	0.628401	0.284435
H374	H	0.383628	0.746879	0.357808
H375	H	0.001441	0.747534	0.481798
H376	H	0.263952	0.504041	0.415862
H377	H	0.391902	0.505876	0.301478
H378	H	0.361756	0.629501	0.355945
H379	H	0.255702	0.624931	0.488808
H380	H	0.279313	0.586704	0.275719
H381	H	0.483490	0.712569	0.453146
H382	H	0.284065	0.657319	0.459437
H383	H	0.475033	0.629696	0.431235
H384	H	0.362710	0.625183	0.289899
H385	H	0.227222	0.693297	0.460295
H386	H	0.277971	0.717024	0.456148
H387	H	0.438354	0.546178	0.282365
H388	H	0.431420	0.520303	0.253125
H389	H	0.187577	0.667428	0.407807
H390	H	0.185971	0.639688	0.381350
H391	H	0.136650	0.572209	0.337788
H392	H	0.087842	0.595837	0.327686
H393	H	0.315871	0.700791	0.409863
H394	H	0.312190	0.722099	0.376017
H395	H	0.323978	0.550162	0.356223
H396	H	0.386703	0.535626	0.344759
H397	H	0.440454	0.672152	0.408655
H398	H	0.436824	0.653077	0.373050
H399	H	0.418864	0.579355	0.350100
H400	H	0.358122	0.593074	0.334960
N145	N	0.157624	0.711851	0.423326
N146	N	0.035555	0.536063	0.296994
N147	N	0.092239	0.662594	0.427295
N148	N	0.206990	0.586620	0.298785
N149	N	0.412087	0.712114	0.426860
N150	N	0.271846	0.537594	0.305397
N151	N	0.346884	0.661603	0.428046
N152	N	0.475452	0.587389	0.301303
N153	N	0.241431	0.709546	0.447837
N154	N	0.455392	0.533251	0.266536
N155	N	0.166209	0.653293	0.395327
N156	N	0.124102	0.587485	0.322773
N157	N	0.333761	0.714238	0.394975
N158	N	0.345703	0.538756	0.340759
N159	N	0.418112	0.661400	0.392284
N160	N	0.398232	0.588631	0.331313
Ni37	Ni	0.127975	0.687907	0.456819
Ni38	Ni	0.236388	0.564271	0.333220
Ni39	Ni	0.381478	0.687527	0.459143
Ni40	Ni	0.007236	0.559130	0.330967
O145	O	0.036017	0.585852	0.358209
O146	O	0.189378	0.662751	0.467379
O147	O	0.175717	0.541254	0.347174
O148	O	0.069430	0.712584	0.466272
O149	O	0.217058	0.598908	0.368956
O150	O	0.114018	0.663073	0.493014
O151	O	0.028025	0.530293	0.367069
O152	O	0.147107	0.715946	0.490618
O153	O	0.293126	0.590739	0.345351
O154	O	0.443045	0.664184	0.471321
O155	O	0.449850	0.533713	0.343620
O156	O	0.335663	0.715189	0.477243
O157	O	0.463214	0.590481	0.388487
O158	O	0.368357	0.662338	0.496749
O159	O	0.251330	0.541705	0.373951
O160	O	0.409415	0.734954	0.496760
C481	C	0.138189	0.745939	0.633402
C482	C	0.026780	0.505358	0.501329
C483	C	0.188739	0.507431	0.638665
C484	C	0.078154	0.746172	0.507544
C485	C	0.224213	0.745861	0.661017
C486	C	0.108361	0.506830	0.533388
C487	C	0.090063	0.625537	0.639120
C488	C	0.226941	0.617705	0.506124
C489	C	0.116548	0.647442	0.654100
C490	C	0.240305	0.596296	0.526517
C491	C	0.124343	0.723348	0.651501
C492	C	0.005669	0.525330	0.521748
C493	C	0.208168	0.722509	0.677743
C494	C	0.085003	0.526544	0.552523
C495	C	0.042730	0.655874	0.686100
C496	C	0.156967	0.597792	0.551187
C497	C	0.014443	0.634352	0.672427
C498	C	0.141001	0.619669	0.531613
C499	C	0.038503	0.619341	0.648159
C500	C	0.176756	0.629624	0.509343
C501	C	0.205358	0.530812	0.620059
C502	C	0.099115	0.724594	0.737793
C503	C	0.009469	0.597209	0.631530
C504	C	0.160078	0.652411	0.739653
C505	C	0.407421	0.740725	0.628943
C506	C	0.274037	0.508430	0.508541
C507	C	0.458445	0.500487	0.635704
C508	C	0.327002	0.501126	0.515961
C509	C	0.486717	0.740288	0.662767
C510	C	0.351529	0.511494	0.543799
C511	C	0.342454	0.634735	0.628526
C512	C	0.487067	0.619611	0.508189
C513	C	0.369376	0.652751	0.649768
C514	C	0.004565	0.598085	0.527477
C515	C	0.384256	0.722153	0.650387
C516	C	0.248612	0.527024	0.528662
C517	C	0.462247	0.721040	0.682258
C518	C	0.322906	0.529477	0.563605
C519	C	0.300038	0.650626	0.686461
C520	C	0.425157	0.597825	0.556090
C521	C	0.272720	0.631650	0.667420
C522	C	0.403170	0.618097	0.535659
C523	C	0.293865	0.624016	0.637525
C524	C	0.435398	0.629715	0.512447
C525	C	0.480490	0.521713	0.615271
C526	C	0.359635	0.732950	0.745541
C527	C	0.266165	0.604100	0.616711
C528	C	0.415175	0.652441	0.743287
H401	H	0.109086	0.504504	0.616496
H402	H	0.251800	0.500413	0.737780
H403	H	0.026804	0.746980	0.669256
H404	H	0.148384	0.749752	0.539384
H405	H	0.112166	0.614000	0.621526
H406	H	0.013638	0.628035	0.740338
H407	H	0.043485	0.588925	0.523843
H408	H	0.084854	0.714359	0.649123
H409	H	0.208118	0.533860	0.523074
H410	H	0.106699	0.534227	0.573661
H411	H	0.025542	0.667741	0.705304
H412	H	0.235867	0.623184	0.676297
H413	H	0.101494	0.628401	0.534435
H414	H	0.383628	0.746879	0.607808
H415	H	0.001441	0.747534	0.731798
H416	H	0.263952	0.504041	0.665862
H417	H	0.391902	0.505876	0.551477
H418	H	0.361756	0.629501	0.605945
H419	H	0.255702	0.624931	0.738808
H420	H	0.279313	0.586704	0.525719
H421	H	0.483490	0.712569	0.703146
H422	H	0.284065	0.657319	0.709437
H423	H	0.475033	0.629696	0.681235
H424	H	0.362710	0.625183	0.539899
H425	H	0.227222	0.693297	0.710295
H426	H	0.277971	0.717024	0.706148
H427	H	0.438354	0.546178	0.532365
H428	H	0.431420	0.520303	0.503125
H429	H	0.187577	0.667428	0.657807
H430	H	0.185971	0.639688	0.631350
H431	H	0.136650	0.572209	0.587788
H432	H	0.087842	0.595837	0.577685
H433	H	0.315871	0.700791	0.659863
H434	H	0.312190	0.722099	0.626017
H435	H	0.323978	0.550162	0.606223
H436	H	0.386703	0.535626	0.594759
H437	H	0.440454	0.672152	0.658655
H438	H	0.436824	0.653077	0.623050
H439	H	0.418864	0.579355	0.600100
H440	H	0.358122	0.593074	0.584960
N161	N	0.157624	0.711851	0.673326
N162	N	0.035555	0.536063	0.546994
N163	N	0.092239	0.662594	0.677296
N164	N	0.206990	0.586620	0.548786
N165	N	0.412087	0.712114	0.676860
N166	N	0.271846	0.537594	0.555397
N167	N	0.346884	0.661603	0.678046
N168	N	0.475452	0.587389	0.551303
N169	N	0.241431	0.709546	0.697837
N170	N	0.455392	0.533251	0.516536
N171	N	0.166209	0.653293	0.645327
N172	N	0.124102	0.587485	0.572773
N173	N	0.333761	0.714238	0.644975
N174	N	0.345703	0.538756	0.590759
N175	N	0.418112	0.661400	0.642284
N176	N	0.398232	0.588631	0.581313
Ni41	Ni	0.127975	0.687907	0.706819
Ni42	Ni	0.236388	0.564271	0.583220
Ni43	Ni	0.381478	0.687527	0.709143
Ni44	Ni	0.007236	0.559130	0.580967
O161	O	0.036017	0.585852	0.608209
O162	O	0.189378	0.662751	0.717379
O163	O	0.175717	0.541254	0.597174
O164	O	0.069430	0.712584	0.716272
O165	O	0.217058	0.598908	0.618956
O166	O	0.114018	0.663073	0.743014
O167	O	0.028025	0.530293	0.617069
O168	O	0.147107	0.715946	0.740618
O169	O	0.293126	0.590739	0.595351
O170	O	0.443045	0.664184	0.721321
O171	O	0.449850	0.533713	0.593620
O172	O	0.335663	0.715189	0.727243
O173	O	0.463214	0.590481	0.638487
O174	O	0.368357	0.662338	0.746749
O175	O	0.251330	0.541705	0.623951
O176	O	0.409415	0.734954	0.746760
C529	C	0.138189	0.745939	0.883402
C530	C	0.026780	0.505358	0.751329
C531	C	0.188739	0.507431	0.888665
C532	C	0.078154	0.746172	0.757544
C533	C	0.224213	0.745861	0.911017
C534	C	0.108361	0.506830	0.783388
C535	C	0.090063	0.625537	0.889120
C536	C	0.226941	0.617705	0.756124
C537	C	0.116548	0.647442	0.904100
C538	C	0.240305	0.596296	0.776517
C539	C	0.124343	0.723348	0.901501
C540	C	0.005669	0.525330	0.771748
C541	C	0.208168	0.722509	0.927743
C542	C	0.085003	0.526544	0.802523
C543	C	0.042730	0.655874	0.936100
C544	C	0.156967	0.597792	0.801187
C545	C	0.014443	0.634352	0.922427
C546	C	0.141001	0.619669	0.781613
C547	C	0.038503	0.619341	0.898159
C548	C	0.176756	0.629624	0.759343
C549	C	0.205358	0.530812	0.870059
C550	C	0.099115	0.724594	0.987793
C551	C	0.009469	0.597209	0.881530
C552	C	0.160078	0.652411	0.989653
C553	C	0.407421	0.740725	0.878943
C554	C	0.274037	0.508430	0.758541
C555	C	0.458445	0.500487	0.885704
C556	C	0.327002	0.501126	0.765961
C557	C	0.486717	0.740288	0.912767
C558	C	0.351529	0.511494	0.793799
C559	C	0.342454	0.634735	0.878526
C560	C	0.487067	0.619611	0.758189
C561	C	0.369376	0.652751	0.899768
C562	C	0.004565	0.598085	0.777477
C563	C	0.384256	0.722153	0.900387
C564	C	0.248612	0.527024	0.778662
C565	C	0.462247	0.721040	0.932258
C566	C	0.322906	0.529477	0.813605
C567	C	0.300038	0.650626	0.936461
C568	C	0.425157	0.597825	0.806090
C569	C	0.272720	0.631650	0.917420
C570	C	0.403170	0.618097	0.785659
C571	C	0.293865	0.624016	0.887525
C572	C	0.435398	0.629715	0.762447
C573	C	0.480490	0.521713	0.865271
C574	C	0.359635	0.732950	0.995541
C575	C	0.266165	0.604100	0.866711
C576	C	0.415175	0.652441	0.993287
H441	H	0.109086	0.504504	0.866496
H442	H	0.251800	0.500413	0.987780
H443	H	0.026804	0.746980	0.919256
H444	H	0.148384	0.749752	0.789384
H445	H	0.112166	0.614000	0.871526
H446	H	0.013638	0.628035	0.990338
H447	H	0.043485	0.588925	0.773843
H448	H	0.084854	0.714359	0.899123
H449	H	0.208118	0.533860	0.773074
H450	H	0.106699	0.534227	0.823661
H451	H	0.025542	0.667741	0.955304
H452	H	0.235867	0.623184	0.926297
H453	H	0.101494	0.628401	0.784435
H454	H	0.383628	0.746879	0.857808
H455	H	0.001441	0.747534	0.981798
H456	H	0.263952	0.504041	0.915862
H457	H	0.391902	0.505876	0.801477
H458	H	0.361756	0.629501	0.855945
H459	H	0.255702	0.624931	0.988808
H460	H	0.279313	0.586704	0.775719
H461	H	0.483490	0.712569	0.953146
H462	H	0.284065	0.657319	0.959437
H463	H	0.475033	0.629696	0.931235
H464	H	0.362710	0.625183	0.789899
H465	H	0.227222	0.693297	0.960295
H466	H	0.277971	0.717024	0.956148
H467	H	0.438354	0.546178	0.782365
H468	H	0.431420	0.520303	0.753125
H469	H	0.187577	0.667428	0.907807
H470	H	0.185971	0.639688	0.881350
H471	H	0.136650	0.572209	0.837788
H472	H	0.087842	0.595837	0.827685
H473	H	0.315871	0.700791	0.909863
H474	H	0.312190	0.722099	0.876017
H475	H	0.323978	0.550162	0.856223
H476	H	0.386703	0.535626	0.844759
H477	H	0.440454	0.672152	0.908655
H478	H	0.436824	0.653077	0.873050
H479	H	0.418864	0.579355	0.850100
H480	H	0.358122	0.593074	0.834960
N177	N	0.157624	0.711851	0.923326
N178	N	0.035555	0.536063	0.796994
N179	N	0.092239	0.662594	0.927296
N180	N	0.206990	0.586620	0.798786
N181	N	0.412087	0.712114	0.926860
N182	N	0.271846	0.537594	0.805397
N183	N	0.346884	0.661603	0.928046
N184	N	0.475452	0.587389	0.801303
N185	N	0.241431	0.709546	0.947837
N186	N	0.455392	0.533251	0.766536
N187	N	0.166209	0.653293	0.895327
N188	N	0.124102	0.587485	0.822773
N189	N	0.333761	0.714238	0.894975
N190	N	0.345703	0.538756	0.840759
N191	N	0.418112	0.661400	0.892284
N192	N	0.398232	0.588631	0.831313
Ni45	Ni	0.127975	0.687907	0.956819
Ni46	Ni	0.236388	0.564271	0.833220
Ni47	Ni	0.381478	0.687527	0.959143
Ni48	Ni	0.007236	0.559130	0.830967
O177	O	0.036017	0.585852	0.858209
O178	O	0.189378	0.662751	0.967379
O179	O	0.175717	0.541254	0.847174
O180	O	0.069430	0.712584	0.966272
O181	O	0.217058	0.598908	0.868956
O182	O	0.114018	0.663073	0.993014
O183	O	0.028025	0.530293	0.867069
O184	O	0.147107	0.715946	0.990618
O185	O	0.293126	0.590739	0.845351
O186	O	0.443045	0.664184	0.971321
O187	O	0.449850	0.533713	0.843620
O188	O	0.335663	0.715189	0.977243
O189	O	0.463214	0.590481	0.888487
O190	O	0.368357	0.662338	0.996749
O191	O	0.251330	0.541705	0.873951
O192	O	0.409415	0.734954	0.996760
C577	C	0.138189	0.995939	0.133402
C578	C	0.026780	0.755358	0.001329
C579	C	0.188739	0.757431	0.138665
C580	C	0.078154	0.996172	0.007544
C581	C	0.224213	0.995861	0.161017
C582	C	0.108361	0.756830	0.033388
C583	C	0.090063	0.875537	0.139120
C584	C	0.226941	0.867705	0.006124
C585	C	0.116548	0.897442	0.154100
C586	C	0.240305	0.846296	0.026516
C587	C	0.124343	0.973348	0.151501
C588	C	0.005669	0.775330	0.021749
C589	C	0.208168	0.972509	0.177743
C590	C	0.085003	0.776544	0.052523
C591	C	0.042730	0.905874	0.186100
C592	C	0.156967	0.847792	0.051187
C593	C	0.014443	0.884352	0.172427
C594	C	0.141001	0.869669	0.031613
C595	C	0.038503	0.869341	0.148159
C596	C	0.176756	0.879624	0.009343
C597	C	0.205358	0.780812	0.120059
C598	C	0.099115	0.974594	0.237793
C599	C	0.009469	0.847209	0.131530
C600	C	0.160078	0.902411	0.239653
C601	C	0.407421	0.990725	0.128943
C602	C	0.274037	0.758430	0.008542
C603	C	0.458445	0.750487	0.135704
C604	C	0.327002	0.751126	0.015960
C605	C	0.486717	0.990288	0.162767
C606	C	0.351529	0.761494	0.043799
C607	C	0.342454	0.884735	0.128526
C608	C	0.487067	0.869611	0.008189
C609	C	0.369376	0.902751	0.149768
C610	C	0.004565	0.848085	0.027477
C611	C	0.384256	0.972153	0.150387
C612	C	0.248612	0.777024	0.028662
C613	C	0.462247	0.971040	0.182258
C614	C	0.322906	0.779477	0.063605
C615	C	0.300038	0.900626	0.186461
C616	C	0.425157	0.847825	0.056090
C617	C	0.272720	0.881650	0.167420
C618	C	0.403170	0.868097	0.035659
C619	C	0.293865	0.874016	0.137524
C620	C	0.435398	0.879715	0.012448
C621	C	0.480490	0.771713	0.115271
C622	C	0.359635	0.982950	0.245541
C623	C	0.266165	0.854100	0.116711
C624	C	0.415175	0.902441	0.243287
H481	H	0.109086	0.754504	0.116496
H482	H	0.251800	0.750413	0.237780
H483	H	0.026804	0.996980	0.169256
H484	H	0.148384	0.999752	0.039384
H485	H	0.112166	0.864000	0.121526
H486	H	0.013638	0.878035	0.240338
H487	H	0.043485	0.838925	0.023843
H488	H	0.084854	0.964359	0.149123
H489	H	0.208118	0.783860	0.023074
H490	H	0.106699	0.784227	0.073661
H491	H	0.025542	0.917741	0.205304
H492	H	0.235867	0.873184	0.176297
H493	H	0.101494	0.878401	0.034435
H494	H	0.383628	0.996879	0.107808
H495	H	0.001441	0.997534	0.231798
H496	H	0.263952	0.754041	0.165862
H497	H	0.391902	0.755876	0.051478
H498	H	0.361756	0.879501	0.105945
H499	H	0.255702	0.874931	0.238808
H500	H	0.279313	0.836704	0.025719
H501	H	0.483490	0.962569	0.203146
H502	H	0.284065	0.907319	0.209437
H503	H	0.475033	0.879696	0.181235
H504	H	0.362710	0.875183	0.039899
H505	H	0.227222	0.943297	0.210295
H506	H	0.277971	0.967024	0.206148
H507	H	0.438354	0.796178	0.032365
H508	H	0.431420	0.770303	0.003125
H509	H	0.187577	0.917428	0.157807
H510	H	0.185971	0.889688	0.131350
H511	H	0.136650	0.822209	0.087788
H512	H	0.087842	0.845837	0.077686
H513	H	0.315871	0.950791	0.159862
H514	H	0.312190	0.972099	0.126017
H515	H	0.323978	0.800162	0.106223
H516	H	0.386703	0.785626	0.094759
H517	H	0.440454	0.922152	0.158655
H518	H	0.436824	0.903077	0.123050
H519	H	0.418864	0.829355	0.100100
H520	H	0.358122	0.843074	0.084960
N193	N	0.157624	0.961851	0.173325
N194	N	0.035555	0.786063	0.046994
N195	N	0.092239	0.912594	0.177295
N196	N	0.206990	0.836620	0.048786
N197	N	0.412087	0.962114	0.176860
N198	N	0.271846	0.787594	0.055397
N199	N	0.346884	0.911603	0.178046
N200	N	0.475452	0.837389	0.051303
N201	N	0.241431	0.959546	0.197837
N202	N	0.455392	0.783251	0.016536
N203	N	0.166209	0.903293	0.145327
N204	N	0.124102	0.837485	0.072773
N205	N	0.333761	0.964238	0.144975
N206	N	0.345703	0.788756	0.090760
N207	N	0.418112	0.911400	0.142284
N208	N	0.398232	0.838631	0.081313
Ni49	Ni	0.127975	0.937907	0.206819
Ni50	Ni	0.236388	0.814271	0.083220
Ni51	Ni	0.381478	0.937527	0.209143
Ni52	Ni	0.007236	0.809130	0.080967
O193	O	0.036017	0.835852	0.108209
O194	O	0.189378	0.912751	0.217379
O195	O	0.175717	0.791254	0.097173
O196	O	0.069430	0.962584	0.216272
O197	O	0.217058	0.848908	0.118956
O198	O	0.114018	0.913073	0.243014
O199	O	0.028025	0.780293	0.117069
O200	O	0.147107	0.965946	0.240618
O201	O	0.293126	0.840739	0.095351
O202	O	0.443045	0.914184	0.221321
O203	O	0.449850	0.783713	0.093620
O204	O	0.335663	0.965189	0.227242
O205	O	0.463214	0.840481	0.138487
O206	O	0.368357	0.912338	0.246749
O207	O	0.251330	0.791705	0.123951
O208	O	0.409415	0.984954	0.246760
C625	C	0.138189	0.995939	0.383402
C626	C	0.026780	0.755358	0.251329
C627	C	0.188739	0.757431	0.388665
C628	C	0.078154	0.996172	0.257545
C629	C	0.224213	0.995861	0.411017
C630	C	0.108361	0.756830	0.283388
C631	C	0.090063	0.875537	0.389120
C632	C	0.226941	0.867705	0.256124
C633	C	0.116548	0.897442	0.404100
C634	C	0.240305	0.846296	0.276516
C635	C	0.124343	0.973348	0.401501
C636	C	0.005669	0.775330	0.271749
C637	C	0.208168	0.972509	0.427743
C638	C	0.085003	0.776544	0.302523
C639	C	0.042730	0.905874	0.436100
C640	C	0.156967	0.847792	0.301187
C641	C	0.014443	0.884352	0.422427
C642	C	0.141001	0.869669	0.281613
C643	C	0.038503	0.869341	0.398159
C644	C	0.176756	0.879624	0.259344
C645	C	0.205358	0.780812	0.370059
C646	C	0.099115	0.974594	0.487793
C647	C	0.009469	0.847209	0.381530
C648	C	0.160078	0.902411	0.489653
C649	C	0.407421	0.990725	0.378943
C650	C	0.274037	0.758430	0.258541
C651	C	0.458445	0.750487	0.385704
C652	C	0.327002	0.751126	0.265960
C653	C	0.486717	0.990288	0.412767
C654	C	0.351529	0.761494	0.293799
C655	C	0.342454	0.884735	0.378526
C656	C	0.487067	0.869611	0.258189
C657	C	0.369376	0.902751	0.399768
C658	C	0.004565	0.848085	0.277477
C659	C	0.384256	0.972153	0.400387
C660	C	0.248612	0.777024	0.278662
C661	C	0.462247	0.971040	0.432258
C662	C	0.322906	0.779477	0.313605
C663	C	0.300038	0.900626	0.436461
C664	C	0.425157	0.847825	0.306090
C665	C	0.272720	0.881650	0.417420
C666	C	0.403170	0.868097	0.285660
C667	C	0.293865	0.874016	0.387524
C668	C	0.435398	0.879715	0.262448
C669	C	0.480490	0.771713	0.365271
C670	C	0.359635	0.982950	0.495541
C671	C	0.266165	0.854100	0.366711
C672	C	0.415175	0.902441	0.493287
H521	H	0.109086	0.754504	0.366496
H522	H	0.251800	0.750413	0.487780
H523	H	0.026804	0.996980	0.419256
H524	H	0.148384	0.999752	0.289384
H525	H	0.112166	0.864000	0.371526
H526	H	0.013638	0.878035	0.490338
H527	H	0.043485	0.838925	0.273843
H528	H	0.084854	0.964359	0.399123
H529	H	0.208118	0.783860	0.273074
H530	H	0.106699	0.784227	0.323661
H531	H	0.025542	0.917741	0.455304
H532	H	0.235867	0.873184	0.426297
H533	H	0.101494	0.878401	0.284435
H534	H	0.383628	0.996879	0.357808
H535	H	0.001441	0.997534	0.481798
H536	H	0.263952	0.754041	0.415862
H537	H	0.391902	0.755876	0.301478
H538	H	0.361756	0.879501	0.355945
H539	H	0.255702	0.874931	0.488808
H540	H	0.279313	0.836704	0.275719
H541	H	0.483490	0.962569	0.453146
H542	H	0.284065	0.907319	0.459437
H543	H	0.475033	0.879696	0.431235
H544	H	0.362710	0.875183	0.289899
H545	H	0.227222	0.943297	0.460295
H546	H	0.277971	0.967024	0.456148
H547	H	0.438354	0.796178	0.282365
H548	H	0.431420	0.770303	0.253125
H549	H	0.187577	0.917428	0.407807
H550	H	0.185971	0.889688	0.381350
H551	H	0.136650	0.822209	0.337788
H552	H	0.087842	0.845837	0.327686
H553	H	0.315871	0.950791	0.409863
H554	H	0.312190	0.972099	0.376017
H555	H	0.323978	0.800162	0.356223
H556	H	0.386703	0.785626	0.344759
H557	H	0.440454	0.922152	0.408655
H558	H	0.436824	0.903077	0.373050
H559	H	0.418864	0.829355	0.350100
H560	H	0.358122	0.843074	0.334960
N209	N	0.157624	0.961851	0.423326
N210	N	0.035555	0.786063	0.296994
N211	N	0.092239	0.912594	0.427295
N212	N	0.206990	0.836620	0.298785
N213	N	0.412087	0.962114	0.426860
N214	N	0.271846	0.787594	0.305397
N215	N	0.346884	0.911603	0.428046
N216	N	0.475452	0.837389	0.301303
N217	N	0.241431	0.959546	0.447837
N218	N	0.455392	0.783251	0.266536
N219	N	0.166209	0.903293	0.395327
N220	N	0.124102	0.837485	0.322773
N221	N	0.333761	0.964238	0.394975
N222	N	0.345703	0.788756	0.340759
N223	N	0.418112	0.911400	0.392284
N224	N	0.398232	0.838631	0.331313
Ni53	Ni	0.127975	0.937907	0.456819
Ni54	Ni	0.236388	0.814271	0.333220
Ni55	Ni	0.381478	0.937527	0.459143
Ni56	Ni	0.007236	0.809130	0.330967
O209	O	0.036017	0.835852	0.358209
O210	O	0.189378	0.912751	0.467379
O211	O	0.175717	0.791254	0.347174
O212	O	0.069430	0.962584	0.466272
O213	O	0.217058	0.848908	0.368956
O214	O	0.114018	0.913073	0.493014
O215	O	0.028025	0.780293	0.367069
O216	O	0.147107	0.965946	0.490618
O217	O	0.293126	0.840739	0.345351
O218	O	0.443045	0.914184	0.471321
O219	O	0.449850	0.783713	0.343620
O220	O	0.335663	0.965189	0.477243
O221	O	0.463214	0.840481	0.388487
O222	O	0.368357	0.912338	0.496749
O223	O	0.251330	0.791705	0.373951
O224	O	0.409415	0.984954	0.496760
C673	C	0.138189	0.995939	0.633402
C674	C	0.026780	0.755358	0.501329
C675	C	0.188739	0.757431	0.638665
C676	C	0.078154	0.996172	0.507544
C677	C	0.224213	0.995861	0.661017
C678	C	0.108361	0.756830	0.533388
C679	C	0.090063	0.875537	0.639120
C680	C	0.226941	0.867705	0.506124
C681	C	0.116548	0.897442	0.654100
C682	C	0.240305	0.846296	0.526517
C683	C	0.124343	0.973348	0.651501
C684	C	0.005669	0.775330	0.521748
C685	C	0.208168	0.972509	0.677743
C686	C	0.085003	0.776544	0.552523
C687	C	0.042730	0.905874	0.686100
C688	C	0.156967	0.847792	0.551187
C689	C	0.014443	0.884352	0.672427
C690	C	0.141001	0.869669	0.531613
C691	C	0.038503	0.869341	0.648159
C692	C	0.176756	0.879624	0.509343
C693	C	0.205358	0.780812	0.620059
C694	C	0.099115	0.974594	0.737793
C695	C	0.009469	0.847209	0.631530
C696	C	0.160078	0.902411	0.739653
C697	C	0.407421	0.990725	0.628943
C698	C	0.274037	0.758430	0.508541
C699	C	0.458445	0.750487	0.635704
C700	C	0.327002	0.751126	0.515961
C701	C	0.486717	0.990288	0.662767
C702	C	0.351529	0.761494	0.543799
C703	C	0.342454	0.884735	0.628526
C704	C	0.487067	0.869611	0.508189
C705	C	0.369376	0.902751	0.649768
C706	C	0.004565	0.848085	0.527477
C707	C	0.384256	0.972153	0.650387
C708	C	0.248612	0.777024	0.528662
C709	C	0.462247	0.971040	0.682258
C710	C	0.322906	0.779477	0.563605
C711	C	0.300038	0.900626	0.686461
C712	C	0.425157	0.847825	0.556090
C713	C	0.272720	0.881650	0.667420
C714	C	0.403170	0.868097	0.535659
C715	C	0.293865	0.874016	0.637525
C716	C	0.435398	0.879715	0.512447
C717	C	0.480490	0.771713	0.615271
C718	C	0.359635	0.982950	0.745541
C719	C	0.266165	0.854100	0.616711
C720	C	0.415175	0.902441	0.743287
H561	H	0.109086	0.754504	0.616496
H562	H	0.251800	0.750413	0.737780
H563	H	0.026804	0.996980	0.669256
H564	H	0.148384	0.999752	0.539384
H565	H	0.112166	0.864000	0.621526
H566	H	0.013638	0.878035	0.740338
H567	H	0.043485	0.838925	0.523843
H568	H	0.084854	0.964359	0.649123
H569	H	0.208118	0.783860	0.523074
H570	H	0.106699	0.784227	0.573661
H571	H	0.025542	0.917741	0.705304
H572	H	0.235867	0.873184	0.676297
H573	H	0.101494	0.878401	0.534435
H574	H	0.383628	0.996879	0.607808
H575	H	0.001441	0.997534	0.731798
H576	H	0.263952	0.754041	0.665862
H577	H	0.391902	0.755876	0.551477
H578	H	0.361756	0.879501	0.605945
H579	H	0.255702	0.874931	0.738808
H580	H	0.279313	0.836704	0.525719
H581	H	0.483490	0.962569	0.703146
H582	H	0.284065	0.907319	0.709437
H583	H	0.475033	0.879696	0.681235
H584	H	0.362710	0.875183	0.539899
H585	H	0.227222	0.943297	0.710295
H586	H	0.277971	0.967024	0.706148
H587	H	0.438354	0.796178	0.532365
H588	H	0.431420	0.770303	0.503125
H589	H	0.187577	0.917428	0.657807
H590	H	0.185971	0.889688	0.631350
H591	H	0.136650	0.822209	0.587788
H592	H	0.087842	0.845837	0.577685
H593	H	0.315871	0.950791	0.659863
H594	H	0.312190	0.972099	0.626017
H595	H	0.323978	0.800162	0.606223
H596	H	0.386703	0.785626	0.594759
H597	H	0.440454	0.922152	0.658655
H598	H	0.436824	0.903077	0.623050
H599	H	0.418864	0.829355	0.600100
H600	H	0.358122	0.843074	0.584960
N225	N	0.157624	0.961851	0.673326
N226	N	0.035555	0.786063	0.546994
N227	N	0.092239	0.912594	0.677296
N228	N	0.206990	0.836620	0.548786
N229	N	0.412087	0.962114	0.676860
N230	N	0.271846	0.787594	0.555397
N231	N	0.346884	0.911603	0.678046
N232	N	0.475452	0.837389	0.551303
N233	N	0.241431	0.959546	0.697837
N234	N	0.455392	0.783251	0.516536
N235	N	0.166209	0.903293	0.645327
N236	N	0.124102	0.837485	0.572773
N237	N	0.333761	0.964238	0.644975
N238	N	0.345703	0.788756	0.590759
N239	N	0.418112	0.911400	0.642284
N240	N	0.398232	0.838631	0.581313
Ni57	Ni	0.127975	0.937907	0.706819
Ni58	Ni	0.236388	0.814271	0.583220
Ni59	Ni	0.381478	0.937527	0.709143
Ni60	Ni	0.007236	0.809130	0.580967
O225	O	0.036017	0.835852	0.608209
O226	O	0.189378	0.912751	0.717379
O227	O	0.175717	0.791254	0.597174
O228	O	0.069430	0.962584	0.716272
O229	O	0.217058	0.848908	0.618956
O230	O	0.114018	0.913073	0.743014
O231	O	0.028025	0.780293	0.617069
O232	O	0.147107	0.965946	0.740618
O233	O	0.293126	0.840739	0.595351
O234	O	0.443045	0.914184	0.721321
O235	O	0.449850	0.783713	0.593620
O236	O	0.335663	0.965189	0.727243
O237	O	0.463214	0.840481	0.638487
O238	O	0.368357	0.912338	0.746749
O239	O	0.251330	0.791705	0.623951
O240	O	0.409415	0.984954	0.746760
C721	C	0.138189	0.995939	0.883402
C722	C	0.026780	0.755358	0.751329
C723	C	0.188739	0.757431	0.888665
C724	C	0.078154	0.996172	0.757544
C725	C	0.224213	0.995861	0.911017
C726	C	0.108361	0.756830	0.783388
C727	C	0.090063	0.875537	0.889120
C728	C	0.226941	0.867705	0.756124
C729	C	0.116548	0.897442	0.904100
C730	C	0.240305	0.846296	0.776517
C731	C	0.124343	0.973348	0.901501
C732	C	0.005669	0.775330	0.771748
C733	C	0.208168	0.972509	0.927743
C734	C	0.085003	0.776544	0.802523
C735	C	0.042730	0.905874	0.936100
C736	C	0.156967	0.847792	0.801187
C737	C	0.014443	0.884352	0.922427
C738	C	0.141001	0.869669	0.781613
C739	C	0.038503	0.869341	0.898159
C740	C	0.176756	0.879624	0.759343
C741	C	0.205358	0.780812	0.870059
C742	C	0.099115	0.974594	0.987793
C743	C	0.009469	0.847209	0.881530
C744	C	0.160078	0.902411	0.989653
C745	C	0.407421	0.990725	0.878943
C746	C	0.274037	0.758430	0.758541
C747	C	0.458445	0.750487	0.885704
C748	C	0.327002	0.751126	0.765961
C749	C	0.486717	0.990288	0.912767
C750	C	0.351529	0.761494	0.793799
C751	C	0.342454	0.884735	0.878526
C752	C	0.487067	0.869611	0.758189
C753	C	0.369376	0.902751	0.899768
C754	C	0.004565	0.848085	0.777477
C755	C	0.384256	0.972153	0.900387
C756	C	0.248612	0.777024	0.778662
C757	C	0.462247	0.971040	0.932258
C758	C	0.322906	0.779477	0.813605
C759	C	0.300038	0.900626	0.936461
C760	C	0.425157	0.847825	0.806090
C761	C	0.272720	0.881650	0.917420
C762	C	0.403170	0.868097	0.785659
C763	C	0.293865	0.874016	0.887525
C764	C	0.435398	0.879715	0.762447
C765	C	0.480490	0.771713	0.865271
C766	C	0.359635	0.982950	0.995541
C767	C	0.266165	0.854100	0.866711
C768	C	0.415175	0.902441	0.993287
H601	H	0.109086	0.754504	0.866496
H602	H	0.251800	0.750413	0.987780
H603	H	0.026804	0.996980	0.919256
H604	H	0.148384	0.999752	0.789384
H605	H	0.112166	0.864000	0.871526
H606	H	0.013638	0.878035	0.990338
H607	H	0.043485	0.838925	0.773843
H608	H	0.084854	0.964359	0.899123
H609	H	0.208118	0.783860	0.773074
H610	H	0.106699	0.784227	0.823661
H611	H	0.025542	0.917741	0.955304
H612	H	0.235867	0.873184	0.926297
H613	H	0.101494	0.878401	0.784435
H614	H	0.383628	0.996879	0.857808
H615	H	0.001441	0.997534	0.981798
H616	H	0.263952	0.754041	0.915862
H617	H	0.391902	0.755876	0.801477
H618	H	0.361756	0.879501	0.855945
H619	H	0.255702	0.874931	0.988808
H620	H	0.279313	0.836704	0.775719
H621	H	0.483490	0.962569	0.953146
H622	H	0.284065	0.907319	0.959437
H623	H	0.475033	0.879696	0.931235
H624	H	0.362710	0.875183	0.789899
H625	H	0.227222	0.943297	0.960295
H626	H	0.277971	0.967024	0.956148
H627	H	0.438354	0.796178	0.782365
H628	H	0.431420	0.770303	0.753125
H629	H	0.187577	0.917428	0.907807
H630	H	0.185971	0.889688	0.881350
H631	H	0.136650	0.822209	0.837788
H632	H	0.087842	0.845837	0.827685
H633	H	0.315871	0.950791	0.909863
H634	H	0.312190	0.972099	0.876017
H635	H	0.323978	0.800162	0.856223
H636	H	0.386703	0.785626	0.844759
H637	H	0.440454	0.922152	0.908655
H638	H	0.436824	0.903077	0.873050
H639	H	0.418864	0.829355	0.850100
H640	H	0.358122	0.843074	0.834960
N241	N	0.157624	0.961851	0.923326
N242	N	0.035555	0.786063	0.796994
N243	N	0.092239	0.912594	0.927296
N244	N	0.206990	0.836620	0.798786
N245	N	0.412087	0.962114	0.926860
N246	N	0.271846	0.787594	0.805397
N247	N	0.346884	0.911603	0.928046
N248	N	0.475452	0.837389	0.801303
N249	N	0.241431	0.959546	0.947837
N250	N	0.455392	0.783251	0.766536
N251	N	0.166209	0.903293	0.895327
N252	N	0.124102	0.837485	0.822773
N253	N	0.333761	0.964238	0.894975
N254	N	0.345703	0.788756	0.840759
N255	N	0.418112	0.911400	0.892284
N256	N	0.398232	0.838631	0.831313
Ni61	Ni	0.127975	0.937907	0.956819
Ni62	Ni	0.236388	0.814271	0.833220
Ni63	Ni	0.381478	0.937527	0.959143
Ni64	Ni	0.007236	0.809130	0.830967
O241	O	0.036017	0.835852	0.858209
O242	O	0.189378	0.912751	0.967379
O243	O	0.175717	0.791254	0.847174
O244	O	0.069430	0.962584	0.966272
O245	O	0.217058	0.848908	0.868956
O246	O	0.114018	0.913073	0.993014
O247	O	0.028025	0.780293	0.867069
O248	O	0.147107	0.965946	0.990618
O249	O	0.293126	0.840739	0.845351
O250	O	0.443045	0.914184	0.971321
O251	O	0.449850	0.783713	0.843620
O252	O	0.335663	0.965189	0.977243
O253	O	0.463214	0.840481	0.888487
O254	O	0.368357	0.912338	0.996749
O255	O	0.251330	0.791705	0.873951
O256	O	0.409415	0.984954	0.996760
C769	C	0.638189	0.245939	0.133402
C770	C	0.526780	0.005358	0.001329
C771	C	0.688739	0.007431	0.138665
C772	C	0.578153	0.246172	0.007544
C773	C	0.724213	0.245862	0.161017
C774	C	0.608361	0.006830	0.033388
C775	C	0.590063	0.125537	0.139120
C776	C	0.726942	0.117705	0.006124
C777	C	0.616548	0.147442	0.154100
C778	C	0.740305	0.096296	0.026516
C779	C	0.624343	0.223348	0.151501
C780	C	0.505669	0.025330	0.021749
C781	C	0.708168	0.222509	0.177743
C782	C	0.585004	0.026544	0.052523
C783	C	0.542731	0.155874	0.186100
C784	C	0.656967	0.097792	0.051187
C785	C	0.514443	0.134352	0.172427
C786	C	0.641000	0.119669	0.031613
C787	C	0.538502	0.119342	0.148159
C788	C	0.676756	0.129624	0.009343
C789	C	0.705358	0.030812	0.120059
C790	C	0.599115	0.224594	0.237793
C791	C	0.509469	0.097209	0.131530
C792	C	0.660078	0.152411	0.239653
C793	C	0.907421	0.240725	0.128943
C794	C	0.774037	0.008430	0.008542
C795	C	0.958445	0.000487	0.135704
C796	C	0.827001	0.001126	0.015960
C797	C	0.986717	0.240288	0.162767
C798	C	0.851529	0.011494	0.043799
C799	C	0.842454	0.134735	0.128526
C800	C	0.987067	0.119611	0.008189
C801	C	0.869376	0.152751	0.149768
C802	C	0.504565	0.098085	0.027477
C803	C	0.884256	0.222153	0.150387
C804	C	0.748611	0.027024	0.028662
C805	C	0.962247	0.221040	0.182258
C806	C	0.822906	0.029477	0.063605
C807	C	0.800038	0.150626	0.186461
C808	C	0.925157	0.097825	0.056090
C809	C	0.772720	0.131650	0.167420
C810	C	0.903169	0.118097	0.035659
C811	C	0.793865	0.124017	0.137524
C812	C	0.935398	0.129715	0.012448
C813	C	0.980490	0.021713	0.115271
C814	C	0.859635	0.232950	0.245541
C815	C	0.766166	0.104100	0.116711
C816	C	0.915175	0.152441	0.243287
H641	H	0.609085	0.004504	0.116496
H642	H	0.751800	0.000413	0.237780
H643	H	0.526803	0.246980	0.169256
H644	H	0.648384	0.249751	0.039384
H645	H	0.612166	0.114000	0.121526
H646	H	0.513638	0.128035	0.240338
H647	H	0.543485	0.088925	0.023843
H648	H	0.584854	0.214359	0.149123
H649	H	0.708118	0.033861	0.023074
H650	H	0.606699	0.034226	0.073661
H651	H	0.525543	0.167741	0.205304
H652	H	0.735867	0.123184	0.176297
H653	H	0.601494	0.128401	0.034435
H654	H	0.883628	0.246879	0.107808
H655	H	0.501441	0.247534	0.231798
H656	H	0.763952	0.004041	0.165862
H657	H	0.891902	0.005876	0.051478
H658	H	0.861756	0.129501	0.105945
H659	H	0.755702	0.124931	0.238808
H660	H	0.779313	0.086704	0.025719
H661	H	0.983490	0.212569	0.203146
H662	H	0.784065	0.157319	0.209437
H663	H	0.975033	0.129696	0.181235
H664	H	0.862710	0.125183	0.039899
H665	H	0.727222	0.193297	0.210295
H666	H	0.777972	0.217025	0.206148
H667	H	0.938354	0.046178	0.032365
H668	H	0.931420	0.020303	0.003125
H669	H	0.687577	0.167428	0.157807
H670	H	0.685971	0.139688	0.131350
H671	H	0.636650	0.072209	0.087788
H672	H	0.587842	0.095837	0.077686
H673	H	0.815871	0.200791	0.159862
H674	H	0.812190	0.222099	0.126017
H675	H	0.823978	0.050162	0.106223
H676	H	0.886703	0.035626	0.094759
H677	H	0.940454	0.172152	0.158655
H678	H	0.936824	0.153077	0.123050
H679	H	0.918864	0.079355	0.100100
H680	H	0.858122	0.093074	0.084960
N257	N	0.657624	0.211851	0.173325
N258	N	0.535555	0.036063	0.046994
N259	N	0.592239	0.162594	0.177295
N260	N	0.706990	0.086620	0.048786
N261	N	0.912087	0.212115	0.176860
N262	N	0.771846	0.037594	0.055397
N263	N	0.846885	0.161603	0.178046
N264	N	0.975452	0.087389	0.051303
N265	N	0.741432	0.209546	0.197837
N266	N	0.955391	0.033251	0.016536
N267	N	0.666208	0.153292	0.145327
N268	N	0.624101	0.087485	0.072773
N269	N	0.833762	0.214238	0.144975
N270	N	0.845703	0.038756	0.090760
N271	N	0.918112	0.161400	0.142284
N272	N	0.898232	0.088631	0.081313
Ni65	Ni	0.627976	0.187907	0.206819
Ni66	Ni	0.736387	0.064270	0.083220
Ni67	Ni	0.881478	0.187527	0.209143
Ni68	Ni	0.507236	0.059131	0.080967
O257	O	0.536017	0.085852	0.108209
O258	O	0.689377	0.162750	0.217379
O259	O	0.675717	0.041254	0.097173
O260	O	0.569430	0.212584	0.216272
O261	O	0.717059	0.098908	0.118956
O262	O	0.614018	0.163073	0.243014
O263	O	0.528025	0.030294	0.117069
O264	O	0.647107	0.215946	0.240618
O265	O	0.793126	0.090740	0.095351
O266	O	0.943045	0.164184	0.221321
O267	O	0.949850	0.033712	0.093620
O268	O	0.835663	0.215189	0.227242
O269	O	0.963214	0.090482	0.138487
O270	O	0.868357	0.162338	0.246749
O271	O	0.751330	0.041705	0.123951
O272	O	0.909415	0.234955	0.246760
C817	C	0.638189	0.245939	0.383402
C818	C	0.526780	0.005358	0.251329
C819	C	0.688739	0.007431	0.388665
C820	C	0.578153	0.246172	0.257545
C821	C	0.724213	0.245862	0.411017
C822	C	0.608361	0.006830	0.283388
C823	C	0.590063	0.125537	0.389120
C824	C	0.726942	0.117705	0.256124
C825	C	0.616548	0.147442	0.404100
C826	C	0.740305	0.096296	0.276516
C827	C	0.624343	0.223348	0.401501
C828	C	0.505669	0.025330	0.271749
C829	C	0.708168	0.222509	0.427743
C830	C	0.585004	0.026544	0.302523
C831	C	0.542731	0.155874	0.436100
C832	C	0.656967	0.097792	0.301187
C833	C	0.514443	0.134352	0.422427
C834	C	0.641000	0.119669	0.281613
C835	C	0.538502	0.119342	0.398159
C836	C	0.676756	0.129624	0.259344
C837	C	0.705358	0.030812	0.370059
C838	C	0.599115	0.224594	0.487793
C839	C	0.509469	0.097209	0.381530
C840	C	0.660078	0.152411	0.489653
C841	C	0.907421	0.240725	0.378943
C842	C	0.774037	0.008430	0.258541
C843	C	0.958445	0.000487	0.385704
C844	C	0.827001	0.001126	0.265960
C845	C	0.986717	0.240288	0.412767
C846	C	0.851529	0.011494	0.293799
C847	C	0.842454	0.134735	0.378526
C848	C	0.987067	0.119611	0.258189
C849	C	0.869376	0.152751	0.399768
C850	C	0.504565	0.098085	0.277477
C851	C	0.884256	0.222153	0.400387
C852	C	0.748611	0.027024	0.278662
C853	C	0.962247	0.221040	0.432258
C854	C	0.822906	0.029477	0.313605
C855	C	0.800038	0.150626	0.436461
C856	C	0.925157	0.097825	0.306090
C857	C	0.772720	0.131650	0.417420
C858	C	0.903169	0.118097	0.285660
C859	C	0.793865	0.124017	0.387524
C860	C	0.935398	0.129715	0.262448
C861	C	0.980490	0.021713	0.365271
C862	C	0.859635	0.232950	0.495541
C863	C	0.766166	0.104100	0.366711
C864	C	0.915175	0.152441	0.493287
H681	H	0.609085	0.004504	0.366496
H682	H	0.751800	0.000413	0.487780
H683	H	0.526803	0.246980	0.419256
H684	H	0.648384	0.249751	0.289384
H685	H	0.612166	0.114000	0.371526
H686	H	0.513638	0.128035	0.490338
H687	H	0.543485	0.088925	0.273843
H688	H	0.584854	0.214359	0.399123
H689	H	0.708118	0.033861	0.273074
H690	H	0.606699	0.034226	0.323661
H691	H	0.525543	0.167741	0.455304
H692	H	0.735867	0.123184	0.426297
H693	H	0.601494	0.128401	0.284435
H694	H	0.883628	0.246879	0.357808
H695	H	0.501441	0.247534	0.481798
H696	H	0.763952	0.004041	0.415862
H697	H	0.891902	0.005876	0.301478
H698	H	0.861756	0.129501	0.355945
H699	H	0.755702	0.124931	0.488808
H700	H	0.779313	0.086704	0.275719
H701	H	0.983490	0.212569	0.453146
H702	H	0.784065	0.157319	0.459437
H703	H	0.975033	0.129696	0.431235
H704	H	0.862710	0.125183	0.289899
H705	H	0.727222	0.193297	0.460295
H706	H	0.777972	0.217025	0.456148
H707	H	0.938354	0.046178	0.282365
H708	H	0.931420	0.020303	0.253125
H709	H	0.687577	0.167428	0.407807
H710	H	0.685971	0.139688	0.381350
H711	H	0.636650	0.072209	0.337788
H712	H	0.587842	0.095837	0.327686
H713	H	0.815871	0.200791	0.409863
H714	H	0.812190	0.222099	0.376017
H715	H	0.823978	0.050162	0.356223
H716	H	0.886703	0.035626	0.344759
H717	H	0.940454	0.172152	0.408655
H718	H	0.936824	0.153077	0.373050
H719	H	0.918864	0.079355	0.350100
H720	H	0.858122	0.093074	0.334960
N273	N	0.657624	0.211851	0.423326
N274	N	0.535555	0.036063	0.296994
N275	N	0.592239	0.162594	0.427295
N276	N	0.706990	0.086620	0.298785
N277	N	0.912087	0.212115	0.426860
N278	N	0.771846	0.037594	0.305397
N279	N	0.846885	0.161603	0.428046
N280	N	0.975452	0.087389	0.301303
N281	N	0.741432	0.209546	0.447837
N282	N	0.955391	0.033251	0.266536
N283	N	0.666208	0.153292	0.395327
N284	N	0.624101	0.087485	0.322773
N285	N	0.833762	0.214238	0.394975
N286	N	0.845703	0.038756	0.340759
N287	N	0.918112	0.161400	0.392284
N288	N	0.898232	0.088631	0.331313
Ni69	Ni	0.627976	0.187907	0.456819
Ni70	Ni	0.736387	0.064270	0.333220
Ni71	Ni	0.881478	0.187527	0.459143
Ni72	Ni	0.507236	0.059131	0.330967
O273	O	0.536017	0.085852	0.358209
O274	O	0.689377	0.162750	0.467379
O275	O	0.675717	0.041254	0.347174
O276	O	0.569430	0.212584	0.466272
O277	O	0.717059	0.098908	0.368956
O278	O	0.614018	0.163073	0.493014
O279	O	0.528025	0.030294	0.367069
O280	O	0.647107	0.215946	0.490618
O281	O	0.793126	0.090740	0.345351
O282	O	0.943045	0.164184	0.471321
O283	O	0.949850	0.033712	0.343620
O284	O	0.835663	0.215189	0.477243
O285	O	0.963214	0.090482	0.388487
O286	O	0.868357	0.162338	0.496749
O287	O	0.751330	0.041705	0.373951
O288	O	0.909415	0.234955	0.496760
C865	C	0.638189	0.245939	0.633402
C866	C	0.526780	0.005358	0.501329
C867	C	0.688739	0.007431	0.638665
C868	C	0.578153	0.246172	0.507544
C869	C	0.724213	0.245862	0.661017
C870	C	0.608361	0.006830	0.533388
C871	C	0.590063	0.125537	0.639120
C872	C	0.726942	0.117705	0.506124
C873	C	0.616548	0.147442	0.654100
C874	C	0.740305	0.096296	0.526517
C875	C	0.624343	0.223348	0.651501
C876	C	0.505669	0.025330	0.521748
C877	C	0.708168	0.222509	0.677743
C878	C	0.585004	0.026544	0.552523
C879	C	0.542731	0.155874	0.686100
C880	C	0.656967	0.097792	0.551187
C881	C	0.514443	0.134352	0.672427
C882	C	0.641000	0.119669	0.531613
C883	C	0.538502	0.119342	0.648159
C884	C	0.676756	0.129624	0.509343
C885	C	0.705358	0.030812	0.620059
C886	C	0.599115	0.224594	0.737793
C887	C	0.509469	0.097209	0.631530
C888	C	0.660078	0.152411	0.739653
C889	C	0.907421	0.240725	0.628943
C890	C	0.774037	0.008430	0.508541
C891	C	0.958445	0.000487	0.635704
C892	C	0.827001	0.001126	0.515961
C893	C	0.986717	0.240288	0.662767
C894	C	0.851529	0.011494	0.543799
C895	C	0.842454	0.134735	0.628526
C896	C	0.987067	0.119611	0.508189
C897	C	0.869376	0.152751	0.649768
C898	C	0.504565	0.098085	0.527477
C899	C	0.884256	0.222153	0.650387
C900	C	0.748611	0.027024	0.528662
C901	C	0.962247	0.221040	0.682258
C902	C	0.822906	0.029477	0.563605
C903	C	0.800038	0.150626	0.686461
C904	C	0.925157	0.097825	0.556090
C905	C	0.772720	0.131650	0.667420
C906	C	0.903169	0.118097	0.535659
C907	C	0.793865	0.124017	0.637525
C908	C	0.935398	0.129715	0.512447
C909	C	0.980490	0.021713	0.615271
C910	C	0.859635	0.232950	0.745541
C911	C	0.766166	0.104100	0.616711
C912	C	0.915175	0.152441	0.743287
H721	H	0.609085	0.004504	0.616496
H722	H	0.751800	0.000413	0.737780
H723	H	0.526803	0.246980	0.669256
H724	H	0.648384	0.249751	0.539384
H725	H	0.612166	0.114000	0.621526
H726	H	0.513638	0.128035	0.740338
H727	H	0.543485	0.088925	0.523843
H728	H	0.584854	0.214359	0.649123
H729	H	0.708118	0.033861	0.523074
H730	H	0.606699	0.034226	0.573661
H731	H	0.525543	0.167741	0.705304
H732	H	0.735867	0.123184	0.676297
H733	H	0.601494	0.128401	0.534435
H734	H	0.883628	0.246879	0.607808
H735	H	0.501441	0.247534	0.731798
H736	H	0.763952	0.004041	0.665862
H737	H	0.891902	0.005876	0.551477
H738	H	0.861756	0.129501	0.605945
H739	H	0.755702	0.124931	0.738808
H740	H	0.779313	0.086704	0.525719
H741	H	0.983490	0.212569	0.703146
H742	H	0.784065	0.157319	0.709437
H743	H	0.975033	0.129696	0.681235
H744	H	0.862710	0.125183	0.539899
H745	H	0.727222	0.193297	0.710295
H746	H	0.777972	0.217025	0.706148
H747	H	0.938354	0.046178	0.532365
H748	H	0.931420	0.020303	0.503125
H749	H	0.687577	0.167428	0.657807
H750	H	0.685971	0.139688	0.631350
H751	H	0.636650	0.072209	0.587788
H752	H	0.587842	0.095837	0.577685
H753	H	0.815871	0.200791	0.659863
H754	H	0.812190	0.222099	0.626017
H755	H	0.823978	0.050162	0.606223
H756	H	0.886703	0.035626	0.594759
H757	H	0.940454	0.172152	0.658655
H758	H	0.936824	0.153077	0.623050
H759	H	0.918864	0.079355	0.600100
H760	H	0.858122	0.093074	0.584960
N289	N	0.657624	0.211851	0.673326
N290	N	0.535555	0.036063	0.546994
N291	N	0.592239	0.162594	0.677296
N292	N	0.706990	0.086620	0.548786
N293	N	0.912087	0.212115	0.676860
N294	N	0.771846	0.037594	0.555397
N295	N	0.846885	0.161603	0.678046
N296	N	0.975452	0.087389	0.551303
N297	N	0.741432	0.209546	0.697837
N298	N	0.955391	0.033251	0.516536
N299	N	0.666208	0.153292	0.645327
N300	N	0.624101	0.087485	0.572773
N301	N	0.833762	0.214238	0.644975
N302	N	0.845703	0.038756	0.590759
N303	N	0.918112	0.161400	0.642284
N304	N	0.898232	0.088631	0.581313
Ni73	Ni	0.627976	0.187907	0.706819
Ni74	Ni	0.736387	0.064270	0.583220
Ni75	Ni	0.881478	0.187527	0.709143
Ni76	Ni	0.507236	0.059131	0.580967
O289	O	0.536017	0.085852	0.608209
O290	O	0.689377	0.162750	0.717379
O291	O	0.675717	0.041254	0.597174
O292	O	0.569430	0.212584	0.716272
O293	O	0.717059	0.098908	0.618956
O294	O	0.614018	0.163073	0.743014
O295	O	0.528025	0.030294	0.617069
O296	O	0.647107	0.215946	0.740618
O297	O	0.793126	0.090740	0.595351
O298	O	0.943045	0.164184	0.721321
O299	O	0.949850	0.033712	0.593620
O300	O	0.835663	0.215189	0.727243
O301	O	0.963214	0.090482	0.638487
O302	O	0.868357	0.162338	0.746749
O303	O	0.751330	0.041705	0.623951
O304	O	0.909415	0.234955	0.746760
C913	C	0.638189	0.245939	0.883402
C914	C	0.526780	0.005358	0.751329
C915	C	0.688739	0.007431	0.888665
C916	C	0.578153	0.246172	0.757544
C917	C	0.724213	0.245862	0.911017
C918	C	0.608361	0.006830	0.783388
C919	C	0.590063	0.125537	0.889120
C920	C	0.726942	0.117705	0.756124
C921	C	0.616548	0.147442	0.904100
C922	C	0.740305	0.096296	0.776517
C923	C	0.624343	0.223348	0.901501
C924	C	0.505669	0.025330	0.771748
C925	C	0.708168	0.222509	0.927743
C926	C	0.585004	0.026544	0.802523
C927	C	0.542731	0.155874	0.936100
C928	C	0.656967	0.097792	0.801187
C929	C	0.514443	0.134352	0.922427
C930	C	0.641000	0.119669	0.781613
C931	C	0.538502	0.119342	0.898159
C932	C	0.676756	0.129624	0.759343
C933	C	0.705358	0.030812	0.870059
C934	C	0.599115	0.224594	0.987793
C935	C	0.509469	0.097209	0.881530
C936	C	0.660078	0.152411	0.989653
C937	C	0.907421	0.240725	0.878943
C938	C	0.774037	0.008430	0.758541
C939	C	0.958445	0.000487	0.885704
C940	C	0.827001	0.001126	0.765961
C941	C	0.986717	0.240288	0.912767
C942	C	0.851529	0.011494	0.793799
C943	C	0.842454	0.134735	0.878526
C944	C	0.987067	0.119611	0.758189
C945	C	0.869376	0.152751	0.899768
C946	C	0.504565	0.098085	0.777477
C947	C	0.884256	0.222153	0.900387
C948	C	0.748611	0.027024	0.778662
C949	C	0.962247	0.221040	0.932258
C950	C	0.822906	0.029477	0.813605
C951	C	0.800038	0.150626	0.936461
C952	C	0.925157	0.097825	0.806090
C953	C	0.772720	0.131650	0.917420
C954	C	0.903169	0.118097	0.785659
C955	C	0.793865	0.124017	0.887525
C956	C	0.935398	0.129715	0.762447
C957	C	0.980490	0.021713	0.865271
C958	C	0.859635	0.232950	0.995541
C959	C	0.766166	0.104100	0.866711
C960	C	0.915175	0.152441	0.993287
H761	H	0.609085	0.004504	0.866496
H762	H	0.751800	0.000413	0.987780
H763	H	0.526803	0.246980	0.919256
H764	H	0.648384	0.249751	0.789384
H765	H	0.612166	0.114000	0.871526
H766	H	0.513638	0.128035	0.990338
H767	H	0.543485	0.088925	0.773843
H768	H	0.584854	0.214359	0.899123
H769	H	0.708118	0.033861	0.773074
H770	H	0.606699	0.034226	0.823661
H771	H	0.525543	0.167741	0.955304
H772	H	0.735867	0.123184	0.926297
H773	H	0.601494	0.128401	0.784435
H774	H	0.883628	0.246879	0.857808
H775	H	0.501441	0.247534	0.981798
H776	H	0.763952	0.004041	0.915862
H777	H	0.891902	0.005876	0.801477
H778	H	0.861756	0.129501	0.855945
H779	H	0.755702	0.124931	0.988808
H780	H	0.779313	0.086704	0.775719
H781	H	0.983490	0.212569	0.953146
H782	H	0.784065	0.157319	0.959437
H783	H	0.975033	0.129696	0.931235
H784	H	0.862710	0.125183	0.789899
H785	H	0.727222	0.193297	0.960295
H786	H	0.777972	0.217025	0.956148
H787	H	0.938354	0.046178	0.782365
H788	H	0.931420	0.020303	0.753125
H789	H	0.687577	0.167428	0.907807
H790	H	0.685971	0.139688	0.881350
H791	H	0.636650	0.072209	0.837788
H792	H	0.587842	0.095837	0.827685
H793	H	0.815871	0.200791	0.909863
H794	H	0.812190	0.222099	0.876017
H795	H	0.823978	0.050162	0.856223
H796	H	0.886703	0.035626	0.844759
H797	H	0.940454	0.172152	0.908655
H798	H	0.936824	0.153077	0.873050
H799	H	0.918864	0.079355	0.850100
H800	H	0.858122	0.093074	0.834960
N305	N	0.657624	0.211851	0.923326
N306	N	0.535555	0.036063	0.796994
N307	N	0.592239	0.162594	0.927296
N308	N	0.706990	0.086620	0.798786
N309	N	0.912087	0.212115	0.926860
N310	N	0.771846	0.037594	0.805397
N311	N	0.846885	0.161603	0.928046
N312	N	0.975452	0.087389	0.801303
N313	N	0.741432	0.209546	0.947837
N314	N	0.955391	0.033251	0.766536
N315	N	0.666208	0.153292	0.895327
N316	N	0.624101	0.087485	0.822773
N317	N	0.833762	0.214238	0.894975
N318	N	0.845703	0.038756	0.840759
N319	N	0.918112	0.161400	0.892284
N320	N	0.898232	0.088631	0.831313
Ni77	Ni	0.627976	0.187907	0.956819
Ni78	Ni	0.736387	0.064270	0.833220
Ni79	Ni	0.881478	0.187527	0.959143
Ni80	Ni	0.507236	0.059131	0.830967
O305	O	0.536017	0.085852	0.858209
O306	O	0.689377	0.162750	0.967379
O307	O	0.675717	0.041254	0.847174
O308	O	0.569430	0.212584	0.966272
O309	O	0.717059	0.098908	0.868956
O310	O	0.614018	0.163073	0.993014
O311	O	0.528025	0.030294	0.867069
O312	O	0.647107	0.215946	0.990618
O313	O	0.793126	0.090740	0.845351
O314	O	0.943045	0.164184	0.971321
O315	O	0.949850	0.033712	0.843620
O316	O	0.835663	0.215189	0.977243
O317	O	0.963214	0.090482	0.888487
O318	O	0.868357	0.162338	0.996749
O319	O	0.751330	0.041705	0.873951
O320	O	0.909415	0.234955	0.996760
C961	C	0.638189	0.495939	0.133402
C962	C	0.526780	0.255358	0.001329
C963	C	0.688739	0.257431	0.138665
C964	C	0.578153	0.496172	0.007544
C965	C	0.724213	0.495862	0.161017
C966	C	0.608361	0.256830	0.033388
C967	C	0.590063	0.375537	0.139120
C968	C	0.726942	0.367705	0.006124
C969	C	0.616548	0.397442	0.154100
C970	C	0.740305	0.346296	0.026516
C971	C	0.624343	0.473348	0.151501
C972	C	0.505669	0.275330	0.021749
C973	C	0.708168	0.472509	0.177743
C974	C	0.585004	0.276543	0.052523
C975	C	0.542731	0.405874	0.186100
C976	C	0.656967	0.347792	0.051187
C977	C	0.514443	0.384352	0.172427
C978	C	0.641000	0.369669	0.031613
C979	C	0.538502	0.369341	0.148159
C980	C	0.676756	0.379624	0.009343
C981	C	0.705358	0.280812	0.120059
C982	C	0.599115	0.474594	0.237793
C983	C	0.509469	0.347209	0.131530
C984	C	0.660078	0.402411	0.239653
C985	C	0.907421	0.490725	0.128943
C986	C	0.774037	0.258430	0.008542
C987	C	0.958445	0.250487	0.135704
C988	C	0.827001	0.251126	0.015960
C989	C	0.986717	0.490288	0.162767
C990	C	0.851529	0.261494	0.043799
C991	C	0.842454	0.384735	0.128526
C992	C	0.987067	0.369611	0.008189
C993	C	0.869376	0.402751	0.149768
C994	C	0.504565	0.348085	0.027477
C995	C	0.884256	0.472153	0.150387
C996	C	0.748611	0.277024	0.028662
C997	C	0.962247	0.471040	0.182258
C998	C	0.822906	0.279477	0.063605
C999	C	0.800038	0.400626	0.186461
C1000	C	0.925157	0.347825	0.056090
C1001	C	0.772720	0.381650	0.167420
C1002	C	0.903169	0.368097	0.035659
C1003	C	0.793865	0.374016	0.137524
C1004	C	0.935398	0.379715	0.012448
C1005	C	0.980490	0.271713	0.115271
C1006	C	0.859635	0.482950	0.245541
C1007	C	0.766166	0.354100	0.116711
C1008	C	0.915175	0.402441	0.243287
H801	H	0.609085	0.254504	0.116496
H802	H	0.751800	0.250413	0.237780
H803	H	0.526803	0.496980	0.169256
H804	H	0.648384	0.499752	0.039384
H805	H	0.612166	0.364000	0.121526
H806	H	0.513638	0.378035	0.240338
H807	H	0.543485	0.338925	0.023843
H808	H	0.584854	0.464359	0.149123
H809	H	0.708118	0.283861	0.023074
H810	H	0.606699	0.284226	0.073661
H811	H	0.525543	0.417741	0.205304
H812	H	0.735867	0.373184	0.176297
H813	H	0.601494	0.378401	0.034435
H814	H	0.883628	0.496879	0.107808
H815	H	0.501441	0.497534	0.231798
H816	H	0.763952	0.254041	0.165862
H817	H	0.891902	0.255876	0.051478
H818	H	0.861756	0.379501	0.105945
H819	H	0.755702	0.374931	0.238808
H820	H	0.779313	0.336704	0.025719
H821	H	0.983490	0.462569	0.203146
H822	H	0.784065	0.407319	0.209437
H823	H	0.975033	0.379696	0.181235
H824	H	0.862710	0.375183	0.039899
H825	H	0.727222	0.443297	0.210295
H826	H	0.777972	0.467025	0.206148
H827	H	0.938354	0.296178	0.032365
H828	H	0.931420	0.270303	0.003125
H829	H	0.687577	0.417428	0.157807
H830	H	0.685971	0.389688	0.131350
H831	H	0.636650	0.322209	0.087788
H832	H	0.587842	0.345837	0.077686
H833	H	0.815871	0.450791	0.159862
H834	H	0.812190	0.472099	0.126017
H835	H	0.823978	0.300162	0.106223
H836	H	0.886703	0.285626	0.094759
H837	H	0.940454	0.422152	0.158655
H838	H	0.936824	0.403077	0.123050
H839	H	0.918864	0.329355	0.100100
H840	H	0.858122	0.343074	0.084960
N321	N	0.657624	0.461851	0.173325
N322	N	0.535555	0.286063	0.046994
N323	N	0.592239	0.412594	0.177295
N324	N	0.706990	0.336620	0.048786
N325	N	0.912087	0.462114	0.176860
N326	N	0.771846	0.287594	0.055397
N327	N	0.846885	0.411603	0.178046
N328	N	0.975452	0.337389	0.051303
N329	N	0.741432	0.459546	0.197837
N330	N	0.955391	0.283251	0.016536
N331	N	0.666208	0.403292	0.145327
N332	N	0.624101	0.337485	0.072773
N333	N	0.833762	0.464238	0.144975
N334	N	0.845703	0.288756	0.090760
N335	N	0.918112	0.411400	0.142284
N336	N	0.898232	0.338631	0.081313
Ni81	Ni	0.627976	0.437907	0.206819
Ni82	Ni	0.736387	0.314271	0.083220
Ni83	Ni	0.881478	0.437527	0.209143
Ni84	Ni	0.507236	0.309130	0.080967
O321	O	0.536017	0.335852	0.108209
O322	O	0.689377	0.412751	0.217379
O323	O	0.675717	0.291254	0.097173
O324	O	0.569430	0.462584	0.216272
O325	O	0.717059	0.348909	0.118956
O326	O	0.614018	0.413073	0.243014
O327	O	0.528025	0.280293	0.117069
O328	O	0.647107	0.465946	0.240618
O329	O	0.793126	0.340739	0.095351
O330	O	0.943045	0.414184	0.221321
O331	O	0.949850	0.283712	0.093620
O332	O	0.835663	0.465189	0.227242
O333	O	0.963214	0.340481	0.138487
O334	O	0.868357	0.412338	0.246749
O335	O	0.751330	0.291705	0.123951
O336	O	0.909415	0.484955	0.246760
C1009	C	0.638189	0.495939	0.383402
C1010	C	0.526780	0.255358	0.251329
C1011	C	0.688739	0.257431	0.388665
C1012	C	0.578153	0.496172	0.257545
C1013	C	0.724213	0.495862	0.411017
C1014	C	0.608361	0.256830	0.283388
C1015	C	0.590063	0.375537	0.389120
C1016	C	0.726942	0.367705	0.256124
C1017	C	0.616548	0.397442	0.404100
C1018	C	0.740305	0.346296	0.276516
C1019	C	0.624343	0.473348	0.401501
C1020	C	0.505669	0.275330	0.271749
C1021	C	0.708168	0.472509	0.427743
C1022	C	0.585004	0.276543	0.302523
C1023	C	0.542731	0.405874	0.436100
C1024	C	0.656967	0.347792	0.301187
C1025	C	0.514443	0.384352	0.422427
C1026	C	0.641000	0.369669	0.281613
C1027	C	0.538502	0.369341	0.398159
C1028	C	0.676756	0.379624	0.259344
C1029	C	0.705358	0.280812	0.370059
C1030	C	0.599115	0.474594	0.487793
C1031	C	0.509469	0.347209	0.381530
C1032	C	0.660078	0.402411	0.489653
C1033	C	0.907421	0.490725	0.378943
C1034	C	0.774037	0.258430	0.258541
C1035	C	0.958445	0.250487	0.385704
C1036	C	0.827001	0.251126	0.265960
C1037	C	0.986717	0.490288	0.412767
C1038	C	0.851529	0.261494	0.293799
C1039	C	0.842454	0.384735	0.378526
C1040	C	0.987067	0.369611	0.258189
C1041	C	0.869376	0.402751	0.399768
C1042	C	0.504565	0.348085	0.277477
C1043	C	0.884256	0.472153	0.400387
C1044	C	0.748611	0.277024	0.278662
C1045	C	0.962247	0.471040	0.432258
C1046	C	0.822906	0.279477	0.313605
C1047	C	0.800038	0.400626	0.436461
C1048	C	0.925157	0.347825	0.306090
C1049	C	0.772720	0.381650	0.417420
C1050	C	0.903169	0.368097	0.285660
C1051	C	0.793865	0.374016	0.387524
C1052	C	0.935398	0.379715	0.262448
C1053	C	0.980490	0.271713	0.365271
C1054	C	0.859635	0.482950	0.495541
C1055	C	0.766166	0.354100	0.366711
C1056	C	0.915175	0.402441	0.493287
H841	H	0.609085	0.254504	0.366496
H842	H	0.751800	0.250413	0.487780
H843	H	0.526803	0.496980	0.419256
H844	H	0.648384	0.499752	0.289384
H845	H	0.612166	0.364000	0.371526
H846	H	0.513638	0.378035	0.490338
H847	H	0.543485	0.338925	0.273843
H848	H	0.584854	0.464359	0.399123
H849	H	0.708118	0.283861	0.273074
H850	H	0.606699	0.284226	0.323661
H851	H	0.525543	0.417741	0.455304
H852	H	0.735867	0.373184	0.426297
H853	H	0.601494	0.378401	0.284435
H854	H	0.883628	0.496879	0.357808
H855	H	0.501441	0.497534	0.481798
H856	H	0.763952	0.254041	0.415862
H857	H	0.891902	0.255876	0.301478
H858	H	0.861756	0.379501	0.355945
H859	H	0.755702	0.374931	0.488808
H860	H	0.779313	0.336704	0.275719
H861	H	0.983490	0.462569	0.453146
H862	H	0.784065	0.407319	0.459437
H863	H	0.975033	0.379696	0.431235
H864	H	0.862710	0.375183	0.289899
H865	H	0.727222	0.443297	0.460295
H866	H	0.777972	0.467025	0.456148
H867	H	0.938354	0.296178	0.282365
H868	H	0.931420	0.270303	0.253125
H869	H	0.687577	0.417428	0.407807
H870	H	0.685971	0.389688	0.381350
H871	H	0.636650	0.322209	0.337788
H872	H	0.587842	0.345837	0.327686
H873	H	0.815871	0.450791	0.409863
H874	H	0.812190	0.472099	0.376017
H875	H	0.823978	0.300162	0.356223
H876	H	0.886703	0.285626	0.344759
H877	H	0.940454	0.422152	0.408655
H878	H	0.936824	0.403077	0.373050
H879	H	0.918864	0.329355	0.350100
H880	H	0.858122	0.343074	0.334960
N337	N	0.657624	0.461851	0.423326
N338	N	0.535555	0.286063	0.296994
N339	N	0.592239	0.412594	0.427295
N340	N	0.706990	0.336620	0.298785
N341	N	0.912087	0.462114	0.426860
N342	N	0.771846	0.287594	0.305397
N343	N	0.846885	0.411603	0.428046
N344	N	0.975452	0.337389	0.301303
N345	N	0.741432	0.459546	0.447837
N346	N	0.955391	0.283251	0.266536
N347	N	0.666208	0.403292	0.395327
N348	N	0.624101	0.337485	0.322773
N349	N	0.833762	0.464238	0.394975
N350	N	0.845703	0.288756	0.340759
N351	N	0.918112	0.411400	0.392284
N352	N	0.898232	0.338631	0.331313
Ni85	Ni	0.627976	0.437907	0.456819
Ni86	Ni	0.736387	0.314271	0.333220
Ni87	Ni	0.881478	0.437527	0.459143
Ni88	Ni	0.507236	0.309130	0.330967
O337	O	0.536017	0.335852	0.358209
O338	O	0.689377	0.412751	0.467379
O339	O	0.675717	0.291254	0.347174
O340	O	0.569430	0.462584	0.466272
O341	O	0.717059	0.348909	0.368956
O342	O	0.614018	0.413073	0.493014
O343	O	0.528025	0.280293	0.367069
O344	O	0.647107	0.465946	0.490618
O345	O	0.793126	0.340739	0.345351
O346	O	0.943045	0.414184	0.471321
O347	O	0.949850	0.283712	0.343620
O348	O	0.835663	0.465189	0.477243
O349	O	0.963214	0.340481	0.388487
O350	O	0.868357	0.412338	0.496749
O351	O	0.751330	0.291705	0.373951
O352	O	0.909415	0.484955	0.496760
C1057	C	0.638189	0.495939	0.633402
C1058	C	0.526780	0.255358	0.501329
C1059	C	0.688739	0.257431	0.638665
C1060	C	0.578153	0.496172	0.507544
C1061	C	0.724213	0.495862	0.661017
C1062	C	0.608361	0.256830	0.533388
C1063	C	0.590063	0.375537	0.639120
C1064	C	0.726942	0.367705	0.506124
C1065	C	0.616548	0.397442	0.654100
C1066	C	0.740305	0.346296	0.526517
C1067	C	0.624343	0.473348	0.651501
C1068	C	0.505669	0.275330	0.521748
C1069	C	0.708168	0.472509	0.677743
C1070	C	0.585004	0.276543	0.552523
C1071	C	0.542731	0.405874	0.686100
C1072	C	0.656967	0.347792	0.551187
C1073	C	0.514443	0.384352	0.672427
C1074	C	0.641000	0.369669	0.531613
C1075	C	0.538502	0.369341	0.648159
C1076	C	0.676756	0.379624	0.509343
C1077	C	0.705358	0.280812	0.620059
C1078	C	0.599115	0.474594	0.737793
C1079	C	0.509469	0.347209	0.631530
C1080	C	0.660078	0.402411	0.739653
C1081	C	0.907421	0.490725	0.628943
C1082	C	0.774037	0.258430	0.508541
C1083	C	0.958445	0.250487	0.635704
C1084	C	0.827001	0.251126	0.515961
C1085	C	0.986717	0.490288	0.662767
C1086	C	0.851529	0.261494	0.543799
C1087	C	0.842454	0.384735	0.628526
C1088	C	0.987067	0.369611	0.508189
C1089	C	0.869376	0.402751	0.649768
C1090	C	0.504565	0.348085	0.527477
C1091	C	0.884256	0.472153	0.650387
C1092	C	0.748611	0.277024	0.528662
C1093	C	0.962247	0.471040	0.682258
C1094	C	0.822906	0.279477	0.563605
C1095	C	0.800038	0.400626	0.686461
C1096	C	0.925157	0.347825	0.556090
C1097	C	0.772720	0.381650	0.667420
C1098	C	0.903169	0.368097	0.535659
C1099	C	0.793865	0.374016	0.637525
C1100	C	0.935398	0.379715	0.512447
C1101	C	0.980490	0.271713	0.615271
C1102	C	0.859635	0.482950	0.745541
C1103	C	0.766166	0.354100	0.616711
C1104	C	0.915175	0.402441	0.743287
H881	H	0.609085	0.254504	0.616496
H882	H	0.751800	0.250413	0.737780
H883	H	0.526803	0.496980	0.669256
H884	H	0.648384	0.499752	0.539384
H885	H	0.612166	0.364000	0.621526
H886	H	0.513638	0.378035	0.740338
H887	H	0.543485	0.338925	0.523843
H888	H	0.584854	0.464359	0.649123
H889	H	0.708118	0.283861	0.523074
H890	H	0.606699	0.284226	0.573661
H891	H	0.525543	0.417741	0.705304
H892	H	0.735867	0.373184	0.676297
H893	H	0.601494	0.378401	0.534435
H894	H	0.883628	0.496879	0.607808
H895	H	0.501441	0.497534	0.731798
H896	H	0.763952	0.254041	0.665862
H897	H	0.891902	0.255876	0.551477
H898	H	0.861756	0.379501	0.605945
H899	H	0.755702	0.374931	0.738808
H900	H	0.779313	0.336704	0.525719
H901	H	0.983490	0.462569	0.703146
H902	H	0.784065	0.407319	0.709437
H903	H	0.975033	0.379696	0.681235
H904	H	0.862710	0.375183	0.539899
H905	H	0.727222	0.443297	0.710295
H906	H	0.777972	0.467025	0.706148
H907	H	0.938354	0.296178	0.532365
H908	H	0.931420	0.270303	0.503125
H909	H	0.687577	0.417428	0.657807
H910	H	0.685971	0.389688	0.631350
H911	H	0.636650	0.322209	0.587788
H912	H	0.587842	0.345837	0.577685
H913	H	0.815871	0.450791	0.659863
H914	H	0.812190	0.472099	0.626017
H915	H	0.823978	0.300162	0.606223
H916	H	0.886703	0.285626	0.594759
H917	H	0.940454	0.422152	0.658655
H918	H	0.936824	0.403077	0.623050
H919	H	0.918864	0.329355	0.600100
H920	H	0.858122	0.343074	0.584960
N353	N	0.657624	0.461851	0.673326
N354	N	0.535555	0.286063	0.546994
N355	N	0.592239	0.412594	0.677296
N356	N	0.706990	0.336620	0.548786
N357	N	0.912087	0.462114	0.676860
N358	N	0.771846	0.287594	0.555397
N359	N	0.846885	0.411603	0.678046
N360	N	0.975452	0.337389	0.551303
N361	N	0.741432	0.459546	0.697837
N362	N	0.955391	0.283251	0.516536
N363	N	0.666208	0.403292	0.645327
N364	N	0.624101	0.337485	0.572773
N365	N	0.833762	0.464238	0.644975
N366	N	0.845703	0.288756	0.590759
N367	N	0.918112	0.411400	0.642284
N368	N	0.898232	0.338631	0.581313
Ni89	Ni	0.627976	0.437907	0.706819
Ni90	Ni	0.736387	0.314271	0.583220
Ni91	Ni	0.881478	0.437527	0.709143
Ni92	Ni	0.507236	0.309130	0.580967
O353	O	0.536017	0.335852	0.608209
O354	O	0.689377	0.412751	0.717379
O355	O	0.675717	0.291254	0.597174
O356	O	0.569430	0.462584	0.716272
O357	O	0.717059	0.348909	0.618956
O358	O	0.614018	0.413073	0.743014
O359	O	0.528025	0.280293	0.617069
O360	O	0.647107	0.465946	0.740618
O361	O	0.793126	0.340739	0.595351
O362	O	0.943045	0.414184	0.721321
O363	O	0.949850	0.283712	0.593620
O364	O	0.835663	0.465189	0.727243
O365	O	0.963214	0.340481	0.638487
O366	O	0.868357	0.412338	0.746749
O367	O	0.751330	0.291705	0.623951
O368	O	0.909415	0.484955	0.746760
C1105	C	0.638189	0.495939	0.883402
C1106	C	0.526780	0.255358	0.751329
C1107	C	0.688739	0.257431	0.888665
C1108	C	0.578153	0.496172	0.757544
C1109	C	0.724213	0.495862	0.911017
C1110	C	0.608361	0.256830	0.783388
C1111	C	0.590063	0.375537	0.889120
C1112	C	0.726942	0.367705	0.756124
C1113	C	0.616548	0.397442	0.904100
C1114	C	0.740305	0.346296	0.776517
C1115	C	0.624343	0.473348	0.901501
C1116	C	0.505669	0.275330	0.771748
C1117	C	0.708168	0.472509	0.927743
C1118	C	0.585004	0.276543	0.802523
C1119	C	0.542731	0.405874	0.936100
C1120	C	0.656967	0.347792	0.801187
C1121	C	0.514443	0.384352	0.922427
C1122	C	0.641000	0.369669	0.781613
C1123	C	0.538502	0.369341	0.898159
C1124	C	0.676756	0.379624	0.759343
C1125	C	0.705358	0.280812	0.870059
C1126	C	0.599115	0.474594	0.987793
C1127	C	0.509469	0.347209	0.881530
C1128	C	0.660078	0.402411	0.989653
C1129	C	0.907421	0.490725	0.878943
C1130	C	0.774037	0.258430	0.758541
C1131	C	0.958445	0.250487	0.885704
C1132	C	0.827001	0.251126	0.765961
C1133	C	0.986717	0.490288	0.912767
C1134	C	0.851529	0.261494	0.793799
C1135	C	0.842454	0.384735	0.878526
C1136	C	0.987067	0.369611	0.758189
C1137	C	0.869376	0.402751	0.899768
C1138	C	0.504565	0.348085	0.777477
C1139	C	0.884256	0.472153	0.900387
C1140	C	0.748611	0.277024	0.778662
C1141	C	0.962247	0.471040	0.932258
C1142	C	0.822906	0.279477	0.813605
C1143	C	0.800038	0.400626	0.936461
C1144	C	0.925157	0.347825	0.806090
C1145	C	0.772720	0.381650	0.917420
C1146	C	0.903169	0.368097	0.785659
C1147	C	0.793865	0.374016	0.887525
C1148	C	0.935398	0.379715	0.762447
C1149	C	0.980490	0.271713	0.865271
C1150	C	0.859635	0.482950	0.995541
C1151	C	0.766166	0.354100	0.866711
C1152	C	0.915175	0.402441	0.993287
H921	H	0.609085	0.254504	0.866496
H922	H	0.751800	0.250413	0.987780
H923	H	0.526803	0.496980	0.919256
H924	H	0.648384	0.499752	0.789384
H925	H	0.612166	0.364000	0.871526
H926	H	0.513638	0.378035	0.990338
H927	H	0.543485	0.338925	0.773843
H928	H	0.584854	0.464359	0.899123
H929	H	0.708118	0.283861	0.773074
H930	H	0.606699	0.284226	0.823661
H931	H	0.525543	0.417741	0.955304
H932	H	0.735867	0.373184	0.926297
H933	H	0.601494	0.378401	0.784435
H934	H	0.883628	0.496879	0.857808
H935	H	0.501441	0.497534	0.981798
H936	H	0.763952	0.254041	0.915862
H937	H	0.891902	0.255876	0.801477
H938	H	0.861756	0.379501	0.855945
H939	H	0.755702	0.374931	0.988808
H940	H	0.779313	0.336704	0.775719
H941	H	0.983490	0.462569	0.953146
H942	H	0.784065	0.407319	0.959437
H943	H	0.975033	0.379696	0.931235
H944	H	0.862710	0.375183	0.789899
H945	H	0.727222	0.443297	0.960295
H946	H	0.777972	0.467025	0.956148
H947	H	0.938354	0.296178	0.782365
H948	H	0.931420	0.270303	0.753125
H949	H	0.687577	0.417428	0.907807
H950	H	0.685971	0.389688	0.881350
H951	H	0.636650	0.322209	0.837788
H952	H	0.587842	0.345837	0.827685
H953	H	0.815871	0.450791	0.909863
H954	H	0.812190	0.472099	0.876017
H955	H	0.823978	0.300162	0.856223
H956	H	0.886703	0.285626	0.844759
H957	H	0.940454	0.422152	0.908655
H958	H	0.936824	0.403077	0.873050
H959	H	0.918864	0.329355	0.850100
H960	H	0.858122	0.343074	0.834960
N369	N	0.657624	0.461851	0.923326
N370	N	0.535555	0.286063	0.796994
N371	N	0.592239	0.412594	0.927296
N372	N	0.706990	0.336620	0.798786
N373	N	0.912087	0.462114	0.926860
N374	N	0.771846	0.287594	0.805397
N375	N	0.846885	0.411603	0.928046
N376	N	0.975452	0.337389	0.801303
N377	N	0.741432	0.459546	0.947837
N378	N	0.955391	0.283251	0.766536
N379	N	0.666208	0.403292	0.895327
N380	N	0.624101	0.337485	0.822773
N381	N	0.833762	0.464238	0.894975
N382	N	0.845703	0.288756	0.840759
N383	N	0.918112	0.411400	0.892284
N384	N	0.898232	0.338631	0.831313
Ni93	Ni	0.627976	0.437907	0.956819
Ni94	Ni	0.736387	0.314271	0.833220
Ni95	Ni	0.881478	0.437527	0.959143
Ni96	Ni	0.507236	0.309130	0.830967
O369	O	0.536017	0.335852	0.858209
O370	O	0.689377	0.412751	0.967379
O371	O	0.675717	0.291254	0.847174
O372	O	0.569430	0.462584	0.966272
O373	O	0.717059	0.348909	0.868956
O374	O	0.614018	0.413073	0.993014
O375	O	0.528025	0.280293	0.867069
O376	O	0.647107	0.465946	0.990618
O377	O	0.793126	0.340739	0.845351
O378	O	0.943045	0.414184	0.971321
O379	O	0.949850	0.283712	0.843620
O380	O	0.835663	0.465189	0.977243
O381	O	0.963214	0.340481	0.888487
O382	O	0.868357	0.412338	0.996749
O383	O	0.751330	0.291705	0.873951
O384	O	0.909415	0.484955	0.996760
C1153	C	0.638189	0.745939	0.133402
C1154	C	0.526780	0.505358	0.001329
C1155	C	0.688739	0.507431	0.138665
C1156	C	0.578153	0.746172	0.007544
C1157	C	0.724213	0.745861	0.161017
C1158	C	0.608361	0.506830	0.033388
C1159	C	0.590063	0.625537	0.139120
C1160	C	0.726942	0.617705	0.006124
C1161	C	0.616548	0.647442	0.154100
C1162	C	0.740305	0.596296	0.026516
C1163	C	0.624343	0.723348	0.151501
C1164	C	0.505669	0.525330	0.021749
C1165	C	0.708168	0.722509	0.177743
C1166	C	0.585004	0.526544	0.052523
C1167	C	0.542731	0.655874	0.186100
C1168	C	0.656967	0.597792	0.051187
C1169	C	0.514443	0.634352	0.172427
C1170	C	0.641000	0.619669	0.031613
C1171	C	0.538502	0.619341	0.148159
C1172	C	0.676756	0.629624	0.009343
C1173	C	0.705358	0.530812	0.120059
C1174	C	0.599115	0.724594	0.237793
C1175	C	0.509469	0.597209	0.131530
C1176	C	0.660078	0.652411	0.239653
C1177	C	0.907421	0.740725	0.128943
C1178	C	0.774037	0.508430	0.008542
C1179	C	0.958445	0.500487	0.135704
C1180	C	0.827001	0.501126	0.015960
C1181	C	0.986717	0.740288	0.162767
C1182	C	0.851529	0.511494	0.043799
C1183	C	0.842454	0.634735	0.128526
C1184	C	0.987067	0.619611	0.008189
C1185	C	0.869376	0.652751	0.149768
C1186	C	0.504565	0.598085	0.027477
C1187	C	0.884256	0.722153	0.150387
C1188	C	0.748611	0.527024	0.028662
C1189	C	0.962247	0.721040	0.182258
C1190	C	0.822906	0.529477	0.063605
C1191	C	0.800038	0.650626	0.186461
C1192	C	0.925157	0.597825	0.056090
C1193	C	0.772720	0.631650	0.167420
C1194	C	0.903169	0.618097	0.035659
C1195	C	0.793865	0.624016	0.137524
C1196	C	0.935398	0.629715	0.012448
C1197	C	0.980490	0.521713	0.115271
C1198	C	0.859635	0.732950	0.245541
C1199	C	0.766166	0.604100	0.116711
C1200	C	0.915175	0.652441	0.243287
H961	H	0.609085	0.504504	0.116496
H962	H	0.751800	0.500413	0.237780
H963	H	0.526803	0.746980	0.169256
H964	H	0.648384	0.749752	0.039384
H965	H	0.612166	0.614000	0.121526
H966	H	0.513638	0.628035	0.240338
H967	H	0.543485	0.588925	0.023843
H968	H	0.584854	0.714359	0.149123
H969	H	0.708118	0.533860	0.023074
H970	H	0.606699	0.534227	0.073661
H971	H	0.525543	0.667741	0.205304
H972	H	0.735867	0.623184	0.176297
H973	H	0.601494	0.628401	0.034435
H974	H	0.883628	0.746879	0.107808
H975	H	0.501441	0.747534	0.231798
H976	H	0.763952	0.504041	0.165862
H977	H	0.891902	0.505876	0.051478
H978	H	0.861756	0.629501	0.105945
H979	H	0.755702	0.624931	0.238808
H980	H	0.779313	0.586704	0.025719
H981	H	0.983490	0.712569	0.203146
H982	H	0.784065	0.657319	0.209437
H983	H	0.975033	0.629696	0.181235
H984	H	0.862710	0.625183	0.039899
H985	H	0.727222	0.693297	0.210295
H986	H	0.777972	0.717024	0.206148
H987	H	0.938354	0.546178	0.032365
H988	H	0.931420	0.520303	0.003125
H989	H	0.687577	0.667428	0.157807
H990	H	0.685971	0.639688	0.131350
H991	H	0.636650	0.572209	0.087788
H992	H	0.587842	0.595837	0.077686
H993	H	0.815871	0.700791	0.159862
H994	H	0.812190	0.722099	0.126017
H995	H	0.823978	0.550162	0.106223
H996	H	0.886703	0.535626	0.094759
H997	H	0.940454	0.672152	0.158655
H998	H	0.936824	0.653077	0.123050
H999	H	0.918864	0.579355	0.100100
H1000	H	0.858122	0.593074	0.084960
N385	N	0.657624	0.711851	0.173325
N386	N	0.535555	0.536063	0.046994
N387	N	0.592239	0.662594	0.177295
N388	N	0.706990	0.586620	0.048786
N389	N	0.912087	0.712114	0.176860
N390	N	0.771846	0.537594	0.055397
N391	N	0.846885	0.661603	0.178046
N392	N	0.975452	0.587389	0.051303
N393	N	0.741432	0.709546	0.197837
N394	N	0.955391	0.533251	0.016536
N395	N	0.666208	0.653293	0.145327
N396	N	0.624101	0.587485	0.072773
N397	N	0.833762	0.714238	0.144975
N398	N	0.845703	0.538756	0.090760
N399	N	0.918112	0.661400	0.142284
N400	N	0.898232	0.588631	0.081313
Ni97	Ni	0.627976	0.687907	0.206819
Ni98	Ni	0.736387	0.564271	0.083220
Ni99	Ni	0.881478	0.687527	0.209143
Ni100	Ni	0.507236	0.559130	0.080967
O385	O	0.536017	0.585852	0.108209
O386	O	0.689377	0.662751	0.217379
O387	O	0.675717	0.541254	0.097173
O388	O	0.569430	0.712584	0.216272
O389	O	0.717059	0.598908	0.118956
O390	O	0.614018	0.663073	0.243014
O391	O	0.528025	0.530293	0.117069
O392	O	0.647107	0.715946	0.240618
O393	O	0.793126	0.590739	0.095351
O394	O	0.943045	0.664184	0.221321
O395	O	0.949850	0.533713	0.093620
O396	O	0.835663	0.715189	0.227242
O397	O	0.963214	0.590481	0.138487
O398	O	0.868357	0.662338	0.246749
O399	O	0.751330	0.541705	0.123951
O400	O	0.909415	0.734954	0.246760
C1201	C	0.638189	0.745939	0.383402
C1202	C	0.526780	0.505358	0.251329
C1203	C	0.688739	0.507431	0.388665
C1204	C	0.578153	0.746172	0.257545
C1205	C	0.724213	0.745861	0.411017
C1206	C	0.608361	0.506830	0.283388
C1207	C	0.590063	0.625537	0.389120
C1208	C	0.726942	0.617705	0.256124
C1209	C	0.616548	0.647442	0.404100
C1210	C	0.740305	0.596296	0.276516
C1211	C	0.624343	0.723348	0.401501
C1212	C	0.505669	0.525330	0.271749
C1213	C	0.708168	0.722509	0.427743
C1214	C	0.585004	0.526544	0.302523
C1215	C	0.542731	0.655874	0.436100
C1216	C	0.656967	0.597792	0.301187
C1217	C	0.514443	0.634352	0.422427
C1218	C	0.641000	0.619669	0.281613
C1219	C	0.538502	0.619341	0.398159
C1220	C	0.676756	0.629624	0.259344
C1221	C	0.705358	0.530812	0.370059
C1222	C	0.599115	0.724594	0.487793
C1223	C	0.509469	0.597209	0.381530
C1224	C	0.660078	0.652411	0.489653
C1225	C	0.907421	0.740725	0.378943
C1226	C	0.774037	0.508430	0.258541
C1227	C	0.958445	0.500487	0.385704
C1228	C	0.827001	0.501126	0.265960
C1229	C	0.986717	0.740288	0.412767
C1230	C	0.851529	0.511494	0.293799
C1231	C	0.842454	0.634735	0.378526
C1232	C	0.987067	0.619611	0.258189
C1233	C	0.869376	0.652751	0.399768
C1234	C	0.504565	0.598085	0.277477
C1235	C	0.884256	0.722153	0.400387
C1236	C	0.748611	0.527024	0.278662
C1237	C	0.962247	0.721040	0.432258
C1238	C	0.822906	0.529477	0.313605
C1239	C	0.800038	0.650626	0.436461
C1240	C	0.925157	0.597825	0.306090
C1241	C	0.772720	0.631650	0.417420
C1242	C	0.903169	0.618097	0.285660
C1243	C	0.793865	0.624016	0.387524
C1244	C	0.935398	0.629715	0.262448
C1245	C	0.980490	0.521713	0.365271
C1246	C	0.859635	0.732950	0.495541
C1247	C	0.766166	0.604100	0.366711
C1248	C	0.915175	0.652441	0.493287
H1001	H	0.609085	0.504504	0.366496
H1002	H	0.751800	0.500413	0.487780
H1003	H	0.526803	0.746980	0.419256
H1004	H	0.648384	0.749752	0.289384
H1005	H	0.612166	0.614000	0.371526
H1006	H	0.513638	0.628035	0.490338
H1007	H	0.543485	0.588925	0.273843
H1008	H	0.584854	0.714359	0.399123
H1009	H	0.708118	0.533860	0.273074
H1010	H	0.606699	0.534227	0.323661
H1011	H	0.525543	0.667741	0.455304
H1012	H	0.735867	0.623184	0.426297
H1013	H	0.601494	0.628401	0.284435
H1014	H	0.883628	0.746879	0.357808
H1015	H	0.501441	0.747534	0.481798
H1016	H	0.763952	0.504041	0.415862
H1017	H	0.891902	0.505876	0.301478
H1018	H	0.861756	0.629501	0.355945
H1019	H	0.755702	0.624931	0.488808
H1020	H	0.779313	0.586704	0.275719
H1021	H	0.983490	0.712569	0.453146
H1022	H	0.784065	0.657319	0.459437
H1023	H	0.975033	0.629696	0.431235
H1024	H	0.862710	0.625183	0.289899
H1025	H	0.727222	0.693297	0.460295
H1026	H	0.777972	0.717024	0.456148
H1027	H	0.938354	0.546178	0.282365
H1028	H	0.931420	0.520303	0.253125
H1029	H	0.687577	0.667428	0.407807
H1030	H	0.685971	0.639688	0.381350
H1031	H	0.636650	0.572209	0.337788
H1032	H	0.587842	0.595837	0.327686
H1033	H	0.815871	0.700791	0.409863
H1034	H	0.812190	0.722099	0.376017
H1035	H	0.823978	0.550162	0.356223
H1036	H	0.886703	0.535626	0.344759
H1037	H	0.940454	0.672152	0.408655
H1038	H	0.936824	0.653077	0.373050
H1039	H	0.918864	0.579355	0.350100
H1040	H	0.858122	0.593074	0.334960
N401	N	0.657624	0.711851	0.423326
N402	N	0.535555	0.536063	0.296994
N403	N	0.592239	0.662594	0.427295
N404	N	0.706990	0.586620	0.298785
N405	N	0.912087	0.712114	0.426860
N406	N	0.771846	0.537594	0.305397
N407	N	0.846885	0.661603	0.428046
N408	N	0.975452	0.587389	0.301303
N409	N	0.741432	0.709546	0.447837
N410	N	0.955391	0.533251	0.266536
N411	N	0.666208	0.653293	0.395327
N412	N	0.624101	0.587485	0.322773
N413	N	0.833762	0.714238	0.394975
N414	N	0.845703	0.538756	0.340759
N415	N	0.918112	0.661400	0.392284
N416	N	0.898232	0.588631	0.331313
Ni101	Ni	0.627976	0.687907	0.456819
Ni102	Ni	0.736387	0.564271	0.333220
Ni103	Ni	0.881478	0.687527	0.459143
Ni104	Ni	0.507236	0.559130	0.330967
O401	O	0.536017	0.585852	0.358209
O402	O	0.689377	0.662751	0.467379
O403	O	0.675717	0.541254	0.347174
O404	O	0.569430	0.712584	0.466272
O405	O	0.717059	0.598908	0.368956
O406	O	0.614018	0.663073	0.493014
O407	O	0.528025	0.530293	0.367069
O408	O	0.647107	0.715946	0.490618
O409	O	0.793126	0.590739	0.345351
O410	O	0.943045	0.664184	0.471321
O411	O	0.949850	0.533713	0.343620
O412	O	0.835663	0.715189	0.477243
O413	O	0.963214	0.590481	0.388487
O414	O	0.868357	0.662338	0.496749
O415	O	0.751330	0.541705	0.373951
O416	O	0.909415	0.734954	0.496760
C1249	C	0.638189	0.745939	0.633402
C1250	C	0.526780	0.505358	0.501329
C1251	C	0.688739	0.507431	0.638665
C1252	C	0.578153	0.746172	0.507544
C1253	C	0.724213	0.745861	0.661017
C1254	C	0.608361	0.506830	0.533388
C1255	C	0.590063	0.625537	0.639120
C1256	C	0.726942	0.617705	0.506124
C1257	C	0.616548	0.647442	0.654100
C1258	C	0.740305	0.596296	0.526517
C1259	C	0.624343	0.723348	0.651501
C1260	C	0.505669	0.525330	0.521748
C1261	C	0.708168	0.722509	0.677743
C1262	C	0.585004	0.526544	0.552523
C1263	C	0.542731	0.655874	0.686100
C1264	C	0.656967	0.597792	0.551187
C1265	C	0.514443	0.634352	0.672427
C1266	C	0.641000	0.619669	0.531613
C1267	C	0.538502	0.619341	0.648159
C1268	C	0.676756	0.629624	0.509343
C1269	C	0.705358	0.530812	0.620059
C1270	C	0.599115	0.724594	0.737793
C1271	C	0.509469	0.597209	0.631530
C1272	C	0.660078	0.652411	0.739653
C1273	C	0.907421	0.740725	0.628943
C1274	C	0.774037	0.508430	0.508541
C1275	C	0.958445	0.500487	0.635704
C1276	C	0.827001	0.501126	0.515961
C1277	C	0.986717	0.740288	0.662767
C1278	C	0.851529	0.511494	0.543799
C1279	C	0.842454	0.634735	0.628526
C1280	C	0.987067	0.619611	0.508189
C1281	C	0.869376	0.652751	0.649768
C1282	C	0.504565	0.598085	0.527477
C1283	C	0.884256	0.722153	0.650387
C1284	C	0.748611	0.527024	0.528662
C1285	C	0.962247	0.721040	0.682258
C1286	C	0.822906	0.529477	0.563605
C1287	C	0.800038	0.650626	0.686461
C1288	C	0.925157	0.597825	0.556090
C1289	C	0.772720	0.631650	0.667420
C1290	C	0.903169	0.618097	0.535659
C1291	C	0.793865	0.624016	0.637525
C1292	C	0.935398	0.629715	0.512447
C1293	C	0.980490	0.521713	0.615271
C1294	C	0.859635	0.732950	0.745541
C1295	C	0.766166	0.604100	0.616711
C1296	C	0.915175	0.652441	0.743287
H1041	H	0.609085	0.504504	0.616496
H1042	H	0.751800	0.500413	0.737780
H1043	H	0.526803	0.746980	0.669256
H1044	H	0.648384	0.749752	0.539384
H1045	H	0.612166	0.614000	0.621526
H1046	H	0.513638	0.628035	0.740338
H1047	H	0.543485	0.588925	0.523843
H1048	H	0.584854	0.714359	0.649123
H1049	H	0.708118	0.533860	0.523074
H1050	H	0.606699	0.534227	0.573661
H1051	H	0.525543	0.667741	0.705304
H1052	H	0.735867	0.623184	0.676297
H1053	H	0.601494	0.628401	0.534435
H1054	H	0.883628	0.746879	0.607808
H1055	H	0.501441	0.747534	0.731798
H1056	H	0.763952	0.504041	0.665862
H1057	H	0.891902	0.505876	0.551477
H1058	H	0.861756	0.629501	0.605945
H1059	H	0.755702	0.624931	0.738808
H1060	H	0.779313	0.586704	0.525719
H1061	H	0.983490	0.712569	0.703146
H1062	H	0.784065	0.657319	0.709437
H1063	H	0.975033	0.629696	0.681235
H1064	H	0.862710	0.625183	0.539899
H1065	H	0.727222	0.693297	0.710295
H1066	H	0.777972	0.717024	0.706148
H1067	H	0.938354	0.546178	0.532365
H1068	H	0.931420	0.520303	0.503125
H1069	H	0.687577	0.667428	0.657807
H1070	H	0.685971	0.639688	0.631350
H1071	H	0.636650	0.572209	0.587788
H1072	H	0.587842	0.595837	0.577685
H1073	H	0.815871	0.700791	0.659863
H1074	H	0.812190	0.722099	0.626017
H1075	H	0.823978	0.550162	0.606223
H1076	H	0.886703	0.535626	0.594759
H1077	H	0.940454	0.672152	0.658655
H1078	H	0.936824	0.653077	0.623050
H1079	H	0.918864	0.579355	0.600100
H1080	H	0.858122	0.593074	0.584960
N417	N	0.657624	0.711851	0.673326
N418	N	0.535555	0.536063	0.546994
N419	N	0.592239	0.662594	0.677296
N420	N	0.706990	0.586620	0.548786
N421	N	0.912087	0.712114	0.676860
N422	N	0.771846	0.537594	0.555397
N423	N	0.846885	0.661603	0.678046
N424	N	0.975452	0.587389	0.551303
N425	N	0.741432	0.709546	0.697837
N426	N	0.955391	0.533251	0.516536
N427	N	0.666208	0.653293	0.645327
N428	N	0.624101	0.587485	0.572773
N429	N	0.833762	0.714238	0.644975
N430	N	0.845703	0.538756	0.590759
N431	N	0.918112	0.661400	0.642284
N432	N	0.898232	0.588631	0.581313
Ni105	Ni	0.627976	0.687907	0.706819
Ni106	Ni	0.736387	0.564271	0.583220
Ni107	Ni	0.881478	0.687527	0.709143
Ni108	Ni	0.507236	0.559130	0.580967
O417	O	0.536017	0.585852	0.608209
O418	O	0.689377	0.662751	0.717379
O419	O	0.675717	0.541254	0.597174
O420	O	0.569430	0.712584	0.716272
O421	O	0.717059	0.598908	0.618956
O422	O	0.614018	0.663073	0.743014
O423	O	0.528025	0.530293	0.617069
O424	O	0.647107	0.715946	0.740618
O425	O	0.793126	0.590739	0.595351
O426	O	0.943045	0.664184	0.721321
O427	O	0.949850	0.533713	0.593620
O428	O	0.835663	0.715189	0.727243
O429	O	0.963214	0.590481	0.638487
O430	O	0.868357	0.662338	0.746749
O431	O	0.751330	0.541705	0.623951
O432	O	0.909415	0.734954	0.746760
C1297	C	0.638189	0.745939	0.883402
C1298	C	0.526780	0.505358	0.751329
C1299	C	0.688739	0.507431	0.888665
C1300	C	0.578153	0.746172	0.757544
C1301	C	0.724213	0.745861	0.911017
C1302	C	0.608361	0.506830	0.783388
C1303	C	0.590063	0.625537	0.889120
C1304	C	0.726942	0.617705	0.756124
C1305	C	0.616548	0.647442	0.904100
C1306	C	0.740305	0.596296	0.776517
C1307	C	0.624343	0.723348	0.901501
C1308	C	0.505669	0.525330	0.771748
C1309	C	0.708168	0.722509	0.927743
C1310	C	0.585004	0.526544	0.802523
C1311	C	0.542731	0.655874	0.936100
C1312	C	0.656967	0.597792	0.801187
C1313	C	0.514443	0.634352	0.922427
C1314	C	0.641000	0.619669	0.781613
C1315	C	0.538502	0.619341	0.898159
C1316	C	0.676756	0.629624	0.759343
C1317	C	0.705358	0.530812	0.870059
C1318	C	0.599115	0.724594	0.987793
C1319	C	0.509469	0.597209	0.881530
C1320	C	0.660078	0.652411	0.989653
C1321	C	0.907421	0.740725	0.878943
C1322	C	0.774037	0.508430	0.758541
C1323	C	0.958445	0.500487	0.885704
C1324	C	0.827001	0.501126	0.765961
C1325	C	0.986717	0.740288	0.912767
C1326	C	0.851529	0.511494	0.793799
C1327	C	0.842454	0.634735	0.878526
C1328	C	0.987067	0.619611	0.758189
C1329	C	0.869376	0.652751	0.899768
C1330	C	0.504565	0.598085	0.777477
C1331	C	0.884256	0.722153	0.900387
C1332	C	0.748611	0.527024	0.778662
C1333	C	0.962247	0.721040	0.932258
C1334	C	0.822906	0.529477	0.813605
C1335	C	0.800038	0.650626	0.936461
C1336	C	0.925157	0.597825	0.806090
C1337	C	0.772720	0.631650	0.917420
C1338	C	0.903169	0.618097	0.785659
C1339	C	0.793865	0.624016	0.887525
C1340	C	0.935398	0.629715	0.762447
C1341	C	0.980490	0.521713	0.865271
C1342	C	0.859635	0.732950	0.995541
C1343	C	0.766166	0.604100	0.866711
C1344	C	0.915175	0.652441	0.993287
H1081	H	0.609085	0.504504	0.866496
H1082	H	0.751800	0.500413	0.987780
H1083	H	0.526803	0.746980	0.919256
H1084	H	0.648384	0.749752	0.789384
H1085	H	0.612166	0.614000	0.871526
H1086	H	0.513638	0.628035	0.990338
H1087	H	0.543485	0.588925	0.773843
H1088	H	0.584854	0.714359	0.899123
H1089	H	0.708118	0.533860	0.773074
H1090	H	0.606699	0.534227	0.823661
H1091	H	0.525543	0.667741	0.955304
H1092	H	0.735867	0.623184	0.926297
H1093	H	0.601494	0.628401	0.784435
H1094	H	0.883628	0.746879	0.857808
H1095	H	0.501441	0.747534	0.981798
H1096	H	0.763952	0.504041	0.915862
H1097	H	0.891902	0.505876	0.801477
H1098	H	0.861756	0.629501	0.855945
H1099	H	0.755702	0.624931	0.988808
H1100	H	0.779313	0.586704	0.775719
H1101	H	0.983490	0.712569	0.953146
H1102	H	0.784065	0.657319	0.959437
H1103	H	0.975033	0.629696	0.931235
H1104	H	0.862710	0.625183	0.789899
H1105	H	0.727222	0.693297	0.960295
H1106	H	0.777972	0.717024	0.956148
H1107	H	0.938354	0.546178	0.782365
H1108	H	0.931420	0.520303	0.753125
H1109	H	0.687577	0.667428	0.907807
H1110	H	0.685971	0.639688	0.881350
H1111	H	0.636650	0.572209	0.837788
H1112	H	0.587842	0.595837	0.827685
H1113	H	0.815871	0.700791	0.909863
H1114	H	0.812190	0.722099	0.876017
H1115	H	0.823978	0.550162	0.856223
H1116	H	0.886703	0.535626	0.844759
H1117	H	0.940454	0.672152	0.908655
H1118	H	0.936824	0.653077	0.873050
H1119	H	0.918864	0.579355	0.850100
H1120	H	0.858122	0.593074	0.834960
N433	N	0.657624	0.711851	0.923326
N434	N	0.535555	0.536063	0.796994
N435	N	0.592239	0.662594	0.927296
N436	N	0.706990	0.586620	0.798786
N437	N	0.912087	0.712114	0.926860
N438	N	0.771846	0.537594	0.805397
N439	N	0.846885	0.661603	0.928046
N440	N	0.975452	0.587389	0.801303
N441	N	0.741432	0.709546	0.947837
N442	N	0.955391	0.533251	0.766536
N443	N	0.666208	0.653293	0.895327
N444	N	0.624101	0.587485	0.822773
N445	N	0.833762	0.714238	0.894975
N446	N	0.845703	0.538756	0.840759
N447	N	0.918112	0.661400	0.892284
N448	N	0.898232	0.588631	0.831313
Ni109	Ni	0.627976	0.687907	0.956819
Ni110	Ni	0.736387	0.564271	0.833220
Ni111	Ni	0.881478	0.687527	0.959143
Ni112	Ni	0.507236	0.559130	0.830967
O433	O	0.536017	0.585852	0.858209
O434	O	0.689377	0.662751	0.967379
O435	O	0.675717	0.541254	0.847174
O436	O	0.569430	0.712584	0.966272
O437	O	0.717059	0.598908	0.868956
O438	O	0.614018	0.663073	0.993014
O439	O	0.528025	0.530293	0.867069
O440	O	0.647107	0.715946	0.990618
O441	O	0.793126	0.590739	0.845351
O442	O	0.943045	0.664184	0.971321
O443	O	0.949850	0.533713	0.843620
O444	O	0.835663	0.715189	0.977243
O445	O	0.963214	0.590481	0.888487
O446	O	0.868357	0.662338	0.996749
O447	O	0.751330	0.541705	0.873951
O448	O	0.909415	0.734954	0.996760
C1345	C	0.638189	0.995939	0.133402
C1346	C	0.526780	0.755358	0.001329
C1347	C	0.688739	0.757431	0.138665
C1348	C	0.578153	0.996172	0.007544
C1349	C	0.724213	0.995861	0.161017
C1350	C	0.608361	0.756830	0.033388
C1351	C	0.590063	0.875537	0.139120
C1352	C	0.726942	0.867705	0.006124
C1353	C	0.616548	0.897442	0.154100
C1354	C	0.740305	0.846296	0.026516
C1355	C	0.624343	0.973348	0.151501
C1356	C	0.505669	0.775330	0.021749
C1357	C	0.708168	0.972509	0.177743
C1358	C	0.585004	0.776544	0.052523
C1359	C	0.542731	0.905874	0.186100
C1360	C	0.656967	0.847792	0.051187
C1361	C	0.514443	0.884352	0.172427
C1362	C	0.641000	0.869669	0.031613
C1363	C	0.538502	0.869341	0.148159
C1364	C	0.676756	0.879624	0.009343
C1365	C	0.705358	0.780812	0.120059
C1366	C	0.599115	0.974594	0.237793
C1367	C	0.509469	0.847209	0.131530
C1368	C	0.660078	0.902411	0.239653
C1369	C	0.907421	0.990725	0.128943
C1370	C	0.774037	0.758430	0.008542
C1371	C	0.958445	0.750487	0.135704
C1372	C	0.827001	0.751126	0.015960
C1373	C	0.986717	0.990288	0.162767
C1374	C	0.851529	0.761494	0.043799
C1375	C	0.842454	0.884735	0.128526
C1376	C	0.987067	0.869611	0.008189
C1377	C	0.869376	0.902751	0.149768
C1378	C	0.504565	0.848085	0.027477
C1379	C	0.884256	0.972153	0.150387
C1380	C	0.748611	0.777024	0.028662
C1381	C	0.962247	0.971040	0.182258
C1382	C	0.822906	0.779477	0.063605
C1383	C	0.800038	0.900626	0.186461
C1384	C	0.925157	0.847825	0.056090
C1385	C	0.772720	0.881650	0.167420
C1386	C	0.903169	0.868097	0.035659
C1387	C	0.793865	0.874016	0.137524
C1388	C	0.935398	0.879715	0.012448
C1389	C	0.980490	0.771713	0.115271
C1390	C	0.859635	0.982950	0.245541
C1391	C	0.766166	0.854100	0.116711
C1392	C	0.915175	0.902441	0.243287
H1121	H	0.609085	0.754504	0.116496
H1122	H	0.751800	0.750413	0.237780
H1123	H	0.526803	0.996980	0.169256
H1124	H	0.648384	0.999752	0.039384
H1125	H	0.612166	0.864000	0.121526
H1126	H	0.513638	0.878035	0.240338
H1127	H	0.543485	0.838925	0.023843
H1128	H	0.584854	0.964359	0.149123
H1129	H	0.708118	0.783860	0.023074
H1130	H	0.606699	0.784227	0.073661
H1131	H	0.525543	0.917741	0.205304
H1132	H	0.735867	0.873184	0.176297
H1133	H	0.601494	0.878401	0.034435
H1134	H	0.883628	0.996879	0.107808
H1135	H	0.501441	0.997534	0.231798
H1136	H	0.763952	0.754041	0.165862
H1137	H	0.891902	0.755876	0.051478
H1138	H	0.861756	0.879501	0.105945
H1139	H	0.755702	0.874931	0.238808
H1140	H	0.779313	0.836704	0.025719
H1141	H	0.983490	0.962569	0.203146
H1142	H	0.784065	0.907319	0.209437
H1143	H	0.975033	0.879696	0.181235
H1144	H	0.862710	0.875183	0.039899
H1145	H	0.727222	0.943297	0.210295
H1146	H	0.777972	0.967024	0.206148
H1147	H	0.938354	0.796178	0.032365
H1148	H	0.931420	0.770303	0.003125
H1149	H	0.687577	0.917428	0.157807
H1150	H	0.685971	0.889688	0.131350
H1151	H	0.636650	0.822209	0.087788
H1152	H	0.587842	0.845837	0.077686
H1153	H	0.815871	0.950791	0.159862
H1154	H	0.812190	0.972099	0.126017
H1155	H	0.823978	0.800162	0.106223
H1156	H	0.886703	0.785626	0.094759
H1157	H	0.940454	0.922152	0.158655
H1158	H	0.936824	0.903077	0.123050
H1159	H	0.918864	0.829355	0.100100
H1160	H	0.858122	0.843074	0.084960
N449	N	0.657624	0.961851	0.173325
N450	N	0.535555	0.786063	0.046994
N451	N	0.592239	0.912594	0.177295
N452	N	0.706990	0.836620	0.048786
N453	N	0.912087	0.962114	0.176860
N454	N	0.771846	0.787594	0.055397
N455	N	0.846885	0.911603	0.178046
N456	N	0.975452	0.837389	0.051303
N457	N	0.741432	0.959546	0.197837
N458	N	0.955391	0.783251	0.016536
N459	N	0.666208	0.903293	0.145327
N460	N	0.624101	0.837485	0.072773
N461	N	0.833762	0.964238	0.144975
N462	N	0.845703	0.788756	0.090760
N463	N	0.918112	0.911400	0.142284
N464	N	0.898232	0.838631	0.081313
Ni113	Ni	0.627976	0.937907	0.206819
Ni114	Ni	0.736387	0.814271	0.083220
Ni115	Ni	0.881478	0.937527	0.209143
Ni116	Ni	0.507236	0.809130	0.080967
O449	O	0.536017	0.835852	0.108209
O450	O	0.689377	0.912751	0.217379
O451	O	0.675717	0.791254	0.097173
O452	O	0.569430	0.962584	0.216272
O453	O	0.717059	0.848908	0.118956
O454	O	0.614018	0.913073	0.243014
O455	O	0.528025	0.780293	0.117069
O456	O	0.647107	0.965946	0.240618
O457	O	0.793126	0.840739	0.095351
O458	O	0.943045	0.914184	0.221321
O459	O	0.949850	0.783713	0.093620
O460	O	0.835663	0.965189	0.227242
O461	O	0.963214	0.840481	0.138487
O462	O	0.868357	0.912338	0.246749
O463	O	0.751330	0.791705	0.123951
O464	O	0.909415	0.984954	0.246760
C1393	C	0.638189	0.995939	0.383402
C1394	C	0.526780	0.755358	0.251329
C1395	C	0.688739	0.757431	0.388665
C1396	C	0.578153	0.996172	0.257545
C1397	C	0.724213	0.995861	0.411017
C1398	C	0.608361	0.756830	0.283388
C1399	C	0.590063	0.875537	0.389120
C1400	C	0.726942	0.867705	0.256124
C1401	C	0.616548	0.897442	0.404100
C1402	C	0.740305	0.846296	0.276516
C1403	C	0.624343	0.973348	0.401501
C1404	C	0.505669	0.775330	0.271749
C1405	C	0.708168	0.972509	0.427743
C1406	C	0.585004	0.776544	0.302523
C1407	C	0.542731	0.905874	0.436100
C1408	C	0.656967	0.847792	0.301187
C1409	C	0.514443	0.884352	0.422427
C1410	C	0.641000	0.869669	0.281613
C1411	C	0.538502	0.869341	0.398159
C1412	C	0.676756	0.879624	0.259344
C1413	C	0.705358	0.780812	0.370059
C1414	C	0.599115	0.974594	0.487793
C1415	C	0.509469	0.847209	0.381530
C1416	C	0.660078	0.902411	0.489653
C1417	C	0.907421	0.990725	0.378943
C1418	C	0.774037	0.758430	0.258541
C1419	C	0.958445	0.750487	0.385704
C1420	C	0.827001	0.751126	0.265960
C1421	C	0.986717	0.990288	0.412767
C1422	C	0.851529	0.761494	0.293799
C1423	C	0.842454	0.884735	0.378526
C1424	C	0.987067	0.869611	0.258189
C1425	C	0.869376	0.902751	0.399768
C1426	C	0.504565	0.848085	0.277477
C1427	C	0.884256	0.972153	0.400387
C1428	C	0.748611	0.777024	0.278662
C1429	C	0.962247	0.971040	0.432258
C1430	C	0.822906	0.779477	0.313605
C1431	C	0.800038	0.900626	0.436461
C1432	C	0.925157	0.847825	0.306090
C1433	C	0.772720	0.881650	0.417420
C1434	C	0.903169	0.868097	0.285660
C1435	C	0.793865	0.874016	0.387524
C1436	C	0.935398	0.879715	0.262448
C1437	C	0.980490	0.771713	0.365271
C1438	C	0.859635	0.982950	0.495541
C1439	C	0.766166	0.854100	0.366711
C1440	C	0.915175	0.902441	0.493287
H1161	H	0.609085	0.754504	0.366496
H1162	H	0.751800	0.750413	0.487780
H1163	H	0.526803	0.996980	0.419256
H1164	H	0.648384	0.999752	0.289384
H1165	H	0.612166	0.864000	0.371526
H1166	H	0.513638	0.878035	0.490338
H1167	H	0.543485	0.838925	0.273843
H1168	H	0.584854	0.964359	0.399123
H1169	H	0.708118	0.783860	0.273074
H1170	H	0.606699	0.784227	0.323661
H1171	H	0.525543	0.917741	0.455304
H1172	H	0.735867	0.873184	0.426297
H1173	H	0.601494	0.878401	0.284435
H1174	H	0.883628	0.996879	0.357808
H1175	H	0.501441	0.997534	0.481798
H1176	H	0.763952	0.754041	0.415862
H1177	H	0.891902	0.755876	0.301478
H1178	H	0.861756	0.879501	0.355945
H1179	H	0.755702	0.874931	0.488808
H1180	H	0.779313	0.836704	0.275719
H1181	H	0.983490	0.962569	0.453146
H1182	H	0.784065	0.907319	0.459437
H1183	H	0.975033	0.879696	0.431235
H1184	H	0.862710	0.875183	0.289899
H1185	H	0.727222	0.943297	0.460295
H1186	H	0.777972	0.967024	0.456148
H1187	H	0.938354	0.796178	0.282365
H1188	H	0.931420	0.770303	0.253125
H1189	H	0.687577	0.917428	0.407807
H1190	H	0.685971	0.889688	0.381350
H1191	H	0.636650	0.822209	0.337788
H1192	H	0.587842	0.845837	0.327686
H1193	H	0.815871	0.950791	0.409863
H1194	H	0.812190	0.972099	0.376017
H1195	H	0.823978	0.800162	0.356223
H1196	H	0.886703	0.785626	0.344759
H1197	H	0.940454	0.922152	0.408655
H1198	H	0.936824	0.903077	0.373050
H1199	H	0.918864	0.829355	0.350100
H1200	H	0.858122	0.843074	0.334960
N465	N	0.657624	0.961851	0.423326
N466	N	0.535555	0.786063	0.296994
N467	N	0.592239	0.912594	0.427295
N468	N	0.706990	0.836620	0.298785
N469	N	0.912087	0.962114	0.426860
N470	N	0.771846	0.787594	0.305397
N471	N	0.846885	0.911603	0.428046
N472	N	0.975452	0.837389	0.301303
N473	N	0.741432	0.959546	0.447837
N474	N	0.955391	0.783251	0.266536
N475	N	0.666208	0.903293	0.395327
N476	N	0.624101	0.837485	0.322773
N477	N	0.833762	0.964238	0.394975
N478	N	0.845703	0.788756	0.340759
N479	N	0.918112	0.911400	0.392284
N480	N	0.898232	0.838631	0.331313
Ni117	Ni	0.627976	0.937907	0.456819
Ni118	Ni	0.736387	0.814271	0.333220
Ni119	Ni	0.881478	0.937527	0.459143
Ni120	Ni	0.507236	0.809130	0.330967
O465	O	0.536017	0.835852	0.358209
O466	O	0.689377	0.912751	0.467379
O467	O	0.675717	0.791254	0.347174
O468	O	0.569430	0.962584	0.466272
O469	O	0.717059	0.848908	0.368956
O470	O	0.614018	0.913073	0.493014
O471	O	0.528025	0.780293	0.367069
O472	O	0.647107	0.965946	0.490618
O473	O	0.793126	0.840739	0.345351
O474	O	0.943045	0.914184	0.471321
O475	O	0.949850	0.783713	0.343620
O476	O	0.835663	0.965189	0.477243
O477	O	0.963214	0.840481	0.388487
O478	O	0.868357	0.912338	0.496749
O479	O	0.751330	0.791705	0.373951
O480	O	0.909415	0.984954	0.496760
C1441	C	0.638189	0.995939	0.633402
C1442	C	0.526780	0.755358	0.501329
C1443	C	0.688739	0.757431	0.638665
C1444	C	0.578153	0.996172	0.507544
C1445	C	0.724213	0.995861	0.661017
C1446	C	0.608361	0.756830	0.533388
C1447	C	0.590063	0.875537	0.639120
C1448	C	0.726942	0.867705	0.506124
C1449	C	0.616548	0.897442	0.654100
C1450	C	0.740305	0.846296	0.526517
C1451	C	0.624343	0.973348	0.651501
C1452	C	0.505669	0.775330	0.521748
C1453	C	0.708168	0.972509	0.677743
C1454	C	0.585004	0.776544	0.552523
C1455	C	0.542731	0.905874	0.686100
C1456	C	0.656967	0.847792	0.551187
C1457	C	0.514443	0.884352	0.672427
C1458	C	0.641000	0.869669	0.531613
C1459	C	0.538502	0.869341	0.648159
C1460	C	0.676756	0.879624	0.509343
C1461	C	0.705358	0.780812	0.620059
C1462	C	0.599115	0.974594	0.737793
C1463	C	0.509469	0.847209	0.631530
C1464	C	0.660078	0.902411	0.739653
C1465	C	0.907421	0.990725	0.628943
C1466	C	0.774037	0.758430	0.508541
C1467	C	0.958445	0.750487	0.635704
C1468	C	0.827001	0.751126	0.515961
C1469	C	0.986717	0.990288	0.662767
C1470	C	0.851529	0.761494	0.543799
C1471	C	0.842454	0.884735	0.628526
C1472	C	0.987067	0.869611	0.508189
C1473	C	0.869376	0.902751	0.649768
C1474	C	0.504565	0.848085	0.527477
C1475	C	0.884256	0.972153	0.650387
C1476	C	0.748611	0.777024	0.528662
C1477	C	0.962247	0.971040	0.682258
C1478	C	0.822906	0.779477	0.563605
C1479	C	0.800038	0.900626	0.686461
C1480	C	0.925157	0.847825	0.556090
C1481	C	0.772720	0.881650	0.667420
C1482	C	0.903169	0.868097	0.535659
C1483	C	0.793865	0.874016	0.637525
C1484	C	0.935398	0.879715	0.512447
C1485	C	0.980490	0.771713	0.615271
C1486	C	0.859635	0.982950	0.745541
C1487	C	0.766166	0.854100	0.616711
C1488	C	0.915175	0.902441	0.743287
H1201	H	0.609085	0.754504	0.616496
H1202	H	0.751800	0.750413	0.737780
H1203	H	0.526803	0.996980	0.669256
H1204	H	0.648384	0.999752	0.539384
H1205	H	0.612166	0.864000	0.621526
H1206	H	0.513638	0.878035	0.740338
H1207	H	0.543485	0.838925	0.523843
H1208	H	0.584854	0.964359	0.649123
H1209	H	0.708118	0.783860	0.523074
H1210	H	0.606699	0.784227	0.573661
H1211	H	0.525543	0.917741	0.705304
H1212	H	0.735867	0.873184	0.676297
H1213	H	0.601494	0.878401	0.534435
H1214	H	0.883628	0.996879	0.607808
H1215	H	0.501441	0.997534	0.731798
H1216	H	0.763952	0.754041	0.665862
H1217	H	0.891902	0.755876	0.551477
H1218	H	0.861756	0.879501	0.605945
H1219	H	0.755702	0.874931	0.738808
H1220	H	0.779313	0.836704	0.525719
H1221	H	0.983490	0.962569	0.703146
H1222	H	0.784065	0.907319	0.709437
H1223	H	0.975033	0.879696	0.681235
H1224	H	0.862710	0.875183	0.539899
H1225	H	0.727222	0.943297	0.710295
H1226	H	0.777972	0.967024	0.706148
H1227	H	0.938354	0.796178	0.532365
H1228	H	0.931420	0.770303	0.503125
H1229	H	0.687577	0.917428	0.657807
H1230	H	0.685971	0.889688	0.631350
H1231	H	0.636650	0.822209	0.587788
H1232	H	0.587842	0.845837	0.577685
H1233	H	0.815871	0.950791	0.659863
H1234	H	0.812190	0.972099	0.626017
H1235	H	0.823978	0.800162	0.606223
H1236	H	0.886703	0.785626	0.594759
H1237	H	0.940454	0.922152	0.658655
H1238	H	0.936824	0.903077	0.623050
H1239	H	0.918864	0.829355	0.600100
H1240	H	0.858122	0.843074	0.584960
N481	N	0.657624	0.961851	0.673326
N482	N	0.535555	0.786063	0.546994
N483	N	0.592239	0.912594	0.677296
N484	N	0.706990	0.836620	0.548786
N485	N	0.912087	0.962114	0.676860
N486	N	0.771846	0.787594	0.555397
N487	N	0.846885	0.911603	0.678046
N488	N	0.975452	0.837389	0.551303
N489	N	0.741432	0.959546	0.697837
N490	N	0.955391	0.783251	0.516536
N491	N	0.666208	0.903293	0.645327
N492	N	0.624101	0.837485	0.572773
N493	N	0.833762	0.964238	0.644975
N494	N	0.845703	0.788756	0.590759
N495	N	0.918112	0.911400	0.642284
N496	N	0.898232	0.838631	0.581313
Ni121	Ni	0.627976	0.937907	0.706819
Ni122	Ni	0.736387	0.814271	0.583220
Ni123	Ni	0.881478	0.937527	0.709143
Ni124	Ni	0.507236	0.809130	0.580967
O481	O	0.536017	0.835852	0.608209
O482	O	0.689377	0.912751	0.717379
O483	O	0.675717	0.791254	0.597174
O484	O	0.569430	0.962584	0.716272
O485	O	0.717059	0.848908	0.618956
O486	O	0.614018	0.913073	0.743014
O487	O	0.528025	0.780293	0.617069
O488	O	0.647107	0.965946	0.740618
O489	O	0.793126	0.840739	0.595351
O490	O	0.943045	0.914184	0.721321
O491	O	0.949850	0.783713	0.593620
O492	O	0.835663	0.965189	0.727243
O493	O	0.963214	0.840481	0.638487
O494	O	0.868357	0.912338	0.746749
O495	O	0.751330	0.791705	0.623951
O496	O	0.909415	0.984954	0.746760
C1489	C	0.638189	0.995939	0.883402
C1490	C	0.526780	0.755358	0.751329
C1491	C	0.688739	0.757431	0.888665
C1492	C	0.578153	0.996172	0.757544
C1493	C	0.724213	0.995861	0.911017
C1494	C	0.608361	0.756830	0.783388
C1495	C	0.590063	0.875537	0.889120
C1496	C	0.726942	0.867705	0.756124
C1497	C	0.616548	0.897442	0.904100
C1498	C	0.740305	0.846296	0.776517
C1499	C	0.624343	0.973348	0.901501
C1500	C	0.505669	0.775330	0.771748
C1501	C	0.708168	0.972509	0.927743
C1502	C	0.585004	0.776544	0.802523
C1503	C	0.542731	0.905874	0.936100
C1504	C	0.656967	0.847792	0.801187
C1505	C	0.514443	0.884352	0.922427
C1506	C	0.641000	0.869669	0.781613
C1507	C	0.538502	0.869341	0.898159
C1508	C	0.676756	0.879624	0.759343
C1509	C	0.705358	0.780812	0.870059
C1510	C	0.599115	0.974594	0.987793
C1511	C	0.509469	0.847209	0.881530
C1512	C	0.660078	0.902411	0.989653
C1513	C	0.907421	0.990725	0.878943
C1514	C	0.774037	0.758430	0.758541
C1515	C	0.958445	0.750487	0.885704
C1516	C	0.827001	0.751126	0.765961
C1517	C	0.986717	0.990288	0.912767
C1518	C	0.851529	0.761494	0.793799
C1519	C	0.842454	0.884735	0.878526
C1520	C	0.987067	0.869611	0.758189
C1521	C	0.869376	0.902751	0.899768
C1522	C	0.504565	0.848085	0.777477
C1523	C	0.884256	0.972153	0.900387
C1524	C	0.748611	0.777024	0.778662
C1525	C	0.962247	0.971040	0.932258
C1526	C	0.822906	0.779477	0.813605
C1527	C	0.800038	0.900626	0.936461
C1528	C	0.925157	0.847825	0.806090
C1529	C	0.772720	0.881650	0.917420
C1530	C	0.903169	0.868097	0.785659
C1531	C	0.793865	0.874016	0.887525
C1532	C	0.935398	0.879715	0.762447
C1533	C	0.980490	0.771713	0.865271
C1534	C	0.859635	0.982950	0.995541
C1535	C	0.766166	0.854100	0.866711
C1536	C	0.915175	0.902441	0.993287
H1241	H	0.609085	0.754504	0.866496
H1242	H	0.751800	0.750413	0.987780
H1243	H	0.526803	0.996980	0.919256
H1244	H	0.648384	0.999752	0.789384
H1245	H	0.612166	0.864000	0.871526
H1246	H	0.513638	0.878035	0.990338
H1247	H	0.543485	0.838925	0.773843
H1248	H	0.584854	0.964359	0.899123
H1249	H	0.708118	0.783860	0.773074
H1250	H	0.606699	0.784227	0.823661
H1251	H	0.525543	0.917741	0.955304
H1252	H	0.735867	0.873184	0.926297
H1253	H	0.601494	0.878401	0.784435
H1254	H	0.883628	0.996879	0.857808
H1255	H	0.501441	0.997534	0.981798
H1256	H	0.763952	0.754041	0.915862
H1257	H	0.891902	0.755876	0.801477
H1258	H	0.861756	0.879501	0.855945
H1259	H	0.755702	0.874931	0.988808
H1260	H	0.779313	0.836704	0.775719
H1261	H	0.983490	0.962569	0.953146
H1262	H	0.784065	0.907319	0.959437
H1263	H	0.975033	0.879696	0.931235
H1264	H	0.862710	0.875183	0.789899
H1265	H	0.727222	0.943297	0.960295
H1266	H	0.777972	0.967024	0.956148
H1267	H	0.938354	0.796178	0.782365
H1268	H	0.931420	0.770303	0.753125
H1269	H	0.687577	0.917428	0.907807
H1270	H	0.685971	0.889688	0.881350
H1271	H	0.636650	0.822209	0.837788
H1272	H	0.587842	0.845837	0.827685
H1273	H	0.815871	0.950791	0.909863
H1274	H	0.812190	0.972099	0.876017
H1275	H	0.823978	0.800162	0.856223
H1276	H	0.886703	0.785626	0.844759
H1277	H	0.940454	0.922152	0.908655
H1278	H	0.936824	0.903077	0.873050
H1279	H	0.918864	0.829355	0.850100
H1280	H	0.858122	0.843074	0.834960
N497	N	0.657624	0.961851	0.923326
N498	N	0.535555	0.786063	0.796994
N499	N	0.592239	0.912594	0.927296
N500	N	0.706990	0.836620	0.798786
N501	N	0.912087	0.962114	0.926860
N502	N	0.771846	0.787594	0.805397
N503	N	0.846885	0.911603	0.928046
N504	N	0.975452	0.837389	0.801303
N505	N	0.741432	0.959546	0.947837
N506	N	0.955391	0.783251	0.766536
N507	N	0.666208	0.903293	0.895327
N508	N	0.624101	0.837485	0.822773
N509	N	0.833762	0.964238	0.894975
N510	N	0.845703	0.788756	0.840759
N511	N	0.918112	0.911400	0.892284
N512	N	0.898232	0.838631	0.831313
Ni125	Ni	0.627976	0.937907	0.956819
Ni126	Ni	0.736387	0.814271	0.833220
Ni127	Ni	0.881478	0.937527	0.959143
Ni128	Ni	0.507236	0.809130	0.830967
O497	O	0.536017	0.835852	0.858209
O498	O	0.689377	0.912751	0.967379
O499	O	0.675717	0.791254	0.847174
O500	O	0.569430	0.962584	0.966272
O501	O	0.717059	0.848908	0.868956
O502	O	0.614018	0.913073	0.993014
O503	O	0.528025	0.780293	0.867069
O504	O	0.647107	0.965946	0.990618
O505	O	0.793126	0.840739	0.845351
O506	O	0.943045	0.914184	0.971321
O507	O	0.949850	0.783713	0.843620
O508	O	0.835663	0.965189	0.977243
O509	O	0.963214	0.840481	0.888487
O510	O	0.868357	0.912338	0.996749
O511	O	0.751330	0.791705	0.873951
O512	O	0.909415	0.984954	0.996760

loop_
_geom_bond_atom_site_label_1
_geom_bond_atom_site_label_2
_geom_bond_distance
C1	C11	0.03209
C1	C195	0.05211
C1	H161	0.03473
C2	C12	0.03552
C3	C21	0.03419
C4	C194	0.05256
C4	C198	0.04116
C5	C13	0.03290
C5	C195	0.04350
C5	H176	0.04086
C6	C14	0.03606
C7	C9	0.03749
C7	C19	0.05271
C7	H5	0.03052
C8	C10	0.03245
C8	C20	0.05168
C9	N3	0.03686
C9	N11	0.05077
C10	H20	0.04018
C10	N4	0.04122
C11	H8	0.04057
C11	N1	0.04143
C12	N2	0.04057
C13	N1	0.05184
C13	N9	0.04097
C14	H10	0.03125
C14	N2	0.05066
C15	C17	0.03808
C15	H11	0.02837
C15	N3	0.05073
C16	C18	0.03342
C16	N4	0.05131
C16	N12	0.04065
C17	C19	0.03732
C18	C20	0.04328
C18	H13	0.04056
C19	C23	0.04012
C21	O3	0.03888
C21	O15	0.04740
C22	O4	0.03858
C22	O8	0.04885
C22	C52	0.03599
C23	O1	0.03712
C24	O2	0.03823
C24	O6	0.04740
C24	C68	0.03443
C25	C35	0.03663
C25	H14	0.03241
C25	C219	0.05239
C26	C28	0.05398
C26	C36	0.03738
C27	C45	0.03680
C28	C30	0.03852
C29	C37	0.03673
C29	C219	0.04044
C29	H643	0.04116
C30	C38	0.03918
C30	H17	0.04148
C31	C33	0.03874
C31	C43	0.05056
C31	H18	0.03016
C32	C44	0.05282
C32	C802	0.03379
C33	N7	0.03720
C33	N15	0.05006
C34	H7	0.04015
C35	N5	0.03970
C35	N13	0.05140
C36	H9	0.04145
C36	N6	0.03696
C37	H21	0.03097
C37	N5	0.05123
C38	N6	0.05235
C38	N14	0.03665
C39	C41	0.03833
C39	H22	0.02877
C39	N7	0.04885
C40	C42	0.03622
C40	N8	0.05159
C40	N16	0.03802
C41	C43	0.03740
C41	H12	0.03884
C42	C44	0.04138
C42	H24	0.04129
C43	C47	0.03996
C45	O11	0.03939
C45	O263	0.04834
C46	O12	0.03500
C46	O16	0.04983
C46	C268	0.04257
C47	O5	0.04943
C47	O9	0.03690
C48	O10	0.03738
C48	O14	0.04798
C48	C92	0.03595
H2	C74	0.03146
H4	C198	0.04108
H15	C242	0.03294
H19	C56	0.03434
H23	C785	0.04065
H25	N9	0.02492
H26	N9	0.03821
H27	N10	0.02661
H28	N10	0.03037
H29	N11	0.02850
H30	N11	0.02777
H31	N12	0.02483
H32	N12	0.03753
H33	N13	0.02688
H34	N13	0.02977
H35	N14	0.02900
H36	N14	0.04131
H37	N15	0.02971
H38	N15	0.02809
H39	N16	0.02941
H40	N16	0.04052
N1	Ni1	0.05074
N2	Ni4	0.04988
N3	Ni1	0.05282
N4	Ni2	0.05049
N5	Ni3	0.05083
N6	Ni2	0.05237
N7	Ni3	0.05325
N8	C802	0.03911
N8	Ni68	0.05185
N10	C780	0.05116
Ni1	O2	0.06719
Ni1	O4	0.06423
Ni1	O6	0.04606
Ni1	O8	0.04790
Ni2	O3	0.06637
Ni2	O5	0.05339
Ni2	O9	0.06377
Ni2	O15	0.04890
Ni3	O10	0.06696
Ni3	O12	0.05650
Ni3	O14	0.04713
Ni4	O1	0.04780
Ni4	O7	0.05067
O11	Ni68	0.06403
O13	C791	0.04726
O16	H228	0.04212
C49	C59	0.03209
C49	C243	0.05211
C49	H201	0.03473
C50	C60	0.03552
C51	C69	0.03419
C52	C242	0.05256
C52	C246	0.04116
C53	C61	0.03290
C53	C243	0.04350
C53	H216	0.04086
C54	C62	0.03606
C55	C57	0.03749
C55	C67	0.05271
C55	H45	0.03052
C56	C58	0.03245
C56	C68	0.05168
C57	N19	0.03686
C57	N27	0.05077
C58	H60	0.04018
C58	N20	0.04122
C59	H48	0.04057
C59	N17	0.04143
C60	N18	0.04057
C61	N17	0.05184
C61	N25	0.04097
C62	H50	0.03125
C62	N18	0.05066
C63	C65	0.03808
C63	H51	0.02837
C63	N19	0.05073
C64	C66	0.03342
C64	N20	0.05131
C64	N28	0.04065
C65	C67	0.03732
C66	C68	0.04328
C66	H53	0.04056
C67	C71	0.04012
C69	O19	0.03888
C69	O31	0.04740
C70	O20	0.03858
C70	O24	0.04885
C70	C100	0.03599
C71	O17	0.03712
C72	O18	0.03823
C72	O22	0.04740
C72	C116	0.03443
C73	C83	0.03663
C73	H54	0.03241
C73	C267	0.05239
C74	C76	0.05398
C74	C84	0.03738
C75	C93	0.03680
C76	C78	0.03852
C77	C85	0.03673
C77	C267	0.04044
C77	H683	0.04116
C78	C86	0.03918
C78	H57	0.04148
C79	C81	0.03874
C79	C91	0.05056
C79	H58	0.03016
C80	C92	0.05282
C80	H646	0.03310
C80	C850	0.03379
C81	N23	0.03720
C81	N31	0.05006
C82	H47	0.04015
C83	N21	0.03970
C83	N29	0.05140
C84	H49	0.04145
C84	N22	0.03696
C85	H61	0.03097
C85	N21	0.05123
C86	N22	0.05235
C86	N30	0.03665
C87	C89	0.03833
C87	H62	0.02877
C87	N23	0.04885
C88	C90	0.03622
C88	N24	0.05159
C88	N32	0.03802
C89	C91	0.03740
C89	H52	0.03884
C90	C92	0.04138
C90	H64	0.04129
C91	C95	0.03996
C93	O27	0.03939
C93	O279	0.04834
C94	O28	0.03500
C94	O32	0.04983
C94	C316	0.04257
C95	O21	0.04943
C95	O25	0.03690
C96	O26	0.03738
C96	O30	0.04798
C96	C140	0.03595
H42	C122	0.03146
H44	C246	0.04108
H55	C290	0.03294
H59	C104	0.03434
H63	C833	0.04065
H65	N25	0.02492
H66	N25	0.03821
H67	N26	0.02661
H68	N26	0.03037
H69	N27	0.02850
H70	N27	0.02777
H71	N28	0.02483
H72	N28	0.03753
H73	N29	0.02688
H74	N29	0.02977
H75	N30	0.02900
H76	N30	0.04131
H77	N31	0.02971
H78	N31	0.02809
H79	N32	0.02941
H80	N32	0.04052
N17	Ni5	0.05074
N18	Ni8	0.04988
N19	Ni5	0.05282
N20	Ni6	0.05049
N21	Ni7	0.05083
N22	Ni6	0.05237
N23	Ni7	0.05325
N24	C850	0.03911
N24	Ni72	0.05185
N26	C828	0.05116
Ni5	O18	0.06719
Ni5	O20	0.06423
Ni5	O22	0.04606
Ni5	O24	0.04790
Ni6	O19	0.06637
Ni6	O21	0.05339
Ni6	O25	0.06377
Ni6	O31	0.04890
Ni7	O26	0.06696
Ni7	O28	0.05650
Ni7	O30	0.04713
Ni8	O17	0.04780
Ni8	O23	0.05067
O27	Ni72	0.06403
O29	C839	0.04726
O32	H268	0.04212
C97	C107	0.03209
C97	C291	0.05211
C97	H241	0.03473
C98	C108	0.03552
C99	C117	0.03419
C100	C290	0.05256
C100	C294	0.04116
C101	C109	0.03290
C101	C291	0.04350
C101	H256	0.04086
C102	C110	0.03606
C103	C105	0.03749
C103	C115	0.05271
C103	H85	0.03052
C104	C106	0.03245
C104	C116	0.05168
C105	N35	0.03686
C105	N43	0.05077
C106	H100	0.04018
C106	N36	0.04122
C107	H88	0.04057
C107	N33	0.04143
C108	N34	0.04057
C109	N33	0.05184
C109	N41	0.04097
C110	H90	0.03125
C110	N34	0.05066
C111	C113	0.03808
C111	H91	0.02837
C111	N35	0.05073
C112	C114	0.03342
C112	N36	0.05131
C112	N44	0.04065
C113	C115	0.03732
C114	C116	0.04328
C114	H93	0.04056
C115	C119	0.04012
C117	O35	0.03888
C117	O47	0.04740
C118	O36	0.03858
C118	O40	0.04885
C118	C148	0.03599
C119	O33	0.03712
C120	O34	0.03823
C120	O38	0.04740
C120	C164	0.03443
C121	C131	0.03663
C121	H94	0.03241
C121	C315	0.05239
C122	C124	0.05398
C122	C132	0.03738
C123	C141	0.03680
C124	C126	0.03852
C125	C133	0.03673
C125	C315	0.04044
C125	H723	0.04116
C126	C134	0.03918
C126	H97	0.04148
C127	C129	0.03874
C127	C139	0.05056
C127	H98	0.03016
C128	C140	0.05282
C128	H686	0.03310
C128	C898	0.03379
C129	N39	0.03720
C129	N47	0.05006
C130	H87	0.04015
C131	N37	0.03970
C131	N45	0.05140
C132	H89	0.04145
C132	N38	0.03696
C133	H101	0.03097
C133	N37	0.05123
C134	N38	0.05235
C134	N46	0.03665
C135	C137	0.03833
C135	H102	0.02877
C135	N39	0.04885
C136	C138	0.03622
C136	N40	0.05159
C136	N48	0.03802
C137	C139	0.03740
C137	H92	0.03884
C138	C140	0.04138
C138	H104	0.04129
C139	C143	0.03996
C141	O43	0.03939
C141	O295	0.04834
C142	O44	0.03500
C142	O48	0.04983
C142	C364	0.04257
C143	O37	0.04943
C143	O41	0.03690
C144	O42	0.03738
C144	O46	0.04798
C144	C188	0.03595
H82	C170	0.03146
H84	C294	0.04108
H95	C338	0.03294
H99	C152	0.03434
H103	C881	0.04065
H105	N41	0.02492
H106	N41	0.03821
H107	N42	0.02661
H108	N42	0.03037
H109	N43	0.02850
H110	N43	0.02777
H111	N44	0.02483
H112	N44	0.03753
H113	N45	0.02688
H114	N45	0.02977
H115	N46	0.02900
H116	N46	0.04131
H117	N47	0.02971
H118	N47	0.02809
H119	N48	0.02941
H120	N48	0.04052
N33	Ni9	0.05074
N34	Ni12	0.04988
N35	Ni9	0.05282
N36	Ni10	0.05049
N37	Ni11	0.05083
N38	Ni10	0.05237
N39	Ni11	0.05325
N40	C898	0.03911
N40	Ni76	0.05185
N42	C876	0.05116
Ni9	O34	0.06719
Ni9	O36	0.06423
Ni9	O38	0.04606
Ni9	O40	0.04790
Ni10	O35	0.06637
Ni10	O37	0.05339
Ni10	O41	0.06377
Ni10	O47	0.04890
Ni11	O42	0.06696
Ni11	O44	0.05650
Ni11	O46	0.04713
Ni12	O33	0.04780
Ni12	O39	0.05067
O43	Ni76	0.06403
O45	C887	0.04726
O48	H308	0.04212
C145	C155	0.03209
C145	C339	0.05211
C145	H281	0.03473
C146	C156	0.03552
C147	C165	0.03419
C148	C338	0.05256
C148	C342	0.04116
C149	C157	0.03290
C149	C339	0.04350
C149	H296	0.04086
C150	C158	0.03606
C151	C153	0.03749
C151	C163	0.05271
C151	H125	0.03052
C152	C154	0.03245
C152	C164	0.05168
C153	N51	0.03686
C153	N59	0.05077
C154	H140	0.04018
C154	N52	0.04122
C155	H128	0.04057
C155	N49	0.04143
C156	N50	0.04057
C157	N49	0.05184
C157	N57	0.04097
C158	H130	0.03125
C158	N50	0.05066
C159	C161	0.03808
C159	H131	0.02837
C159	N51	0.05073
C160	C162	0.03342
C160	N52	0.05131
C160	N60	0.04065
C161	C163	0.03732
C162	C164	0.04328
C162	H133	0.04056
C163	C167	0.04012
C165	O51	0.03888
C165	O63	0.04740
C166	O52	0.03858
C166	O56	0.04885
C167	O49	0.03712
C168	O50	0.03823
C168	O54	0.04740
C169	C179	0.03663
C169	H134	0.03241
C169	C363	0.05239
C170	C172	0.05398
C170	C180	0.03738
C171	C189	0.03680
C172	C174	0.03852
C173	C181	0.03673
C173	C363	0.04044
C173	H763	0.04116
C174	C182	0.03918
C174	H137	0.04148
C175	C177	0.03874
C175	C187	0.05056
C175	H138	0.03016
C176	C188	0.05282
C176	H726	0.03310
C176	C946	0.03379
C177	N55	0.03720
C177	N63	0.05006
C178	H127	0.04015
C179	N53	0.03970
C179	N61	0.05140
C180	H129	0.04145
C180	N54	0.03696
C181	H141	0.03097
C181	N53	0.05123
C182	N54	0.05235
C182	N62	0.03665
C183	C185	0.03833
C183	H142	0.02877
C183	N55	0.04885
C184	C186	0.03622
C184	N56	0.05159
C184	N64	0.03802
C185	C187	0.03740
C185	H132	0.03884
C186	C188	0.04138
C186	H144	0.04129
C187	C191	0.03996
C189	O59	0.03939
C189	O311	0.04834
C190	O60	0.03500
C190	O64	0.04983
C191	O53	0.04943
C191	O57	0.03690
C192	O58	0.03738
C192	O62	0.04798
H124	C342	0.04108
H143	C929	0.04065
H145	N57	0.02492
H146	N57	0.03821
H147	N58	0.02661
H148	N58	0.03037
H149	N59	0.02850
H150	N59	0.02777
H151	N60	0.02483
H152	N60	0.03753
H153	N61	0.02688
H154	N61	0.02977
H155	N62	0.02900
H156	N62	0.04131
H157	N63	0.02971
H158	N63	0.02809
H159	N64	0.02941
H160	N64	0.04052
N49	Ni13	0.05074
N50	Ni16	0.04988
N51	Ni13	0.05282
N52	Ni14	0.05049
N53	Ni15	0.05083
N54	Ni14	0.05237
N55	Ni15	0.05325
N56	C946	0.03911
N56	Ni80	0.05185
N58	C924	0.05116
Ni13	O50	0.06719
Ni13	O52	0.06423
Ni13	O54	0.04606
Ni13	O56	0.04790
Ni14	O51	0.06637
Ni14	O53	0.05339
Ni14	O57	0.06377
Ni14	O63	0.04890
Ni15	O58	0.06696
Ni15	O60	0.05650
Ni15	O62	0.04713
Ni16	O49	0.04780
Ni16	O55	0.05067
O59	Ni80	0.06403
O61	C935	0.04726
C193	C203	0.03209
C193	C387	0.05211
C193	H321	0.03473
C194	C204	0.03552
C195	C213	0.03419
C196	C386	0.05256
C196	C390	0.04116
C197	C205	0.03290
C197	C387	0.04350
C197	H336	0.04086
C198	C206	0.03606
C199	C201	0.03749
C199	C211	0.05271
C199	H165	0.03052
C200	C202	0.03245
C200	C212	0.05168
C201	N67	0.03686
C201	N75	0.05077
C202	H180	0.04018
C202	N68	0.04122
C203	H168	0.04057
C203	N65	0.04143
C204	N66	0.04057
C205	N65	0.05184
C205	N73	0.04097
C206	H170	0.03125
C206	N66	0.05066
C207	C209	0.03808
C207	H171	0.02837
C207	N67	0.05073
C208	C210	0.03342
C208	N68	0.05131
C208	N76	0.04065
C209	C211	0.03732
C210	C212	0.04328
C210	H173	0.04056
C211	C215	0.04012
C213	O67	0.03888
C213	O79	0.04740
C214	O68	0.03858
C214	O72	0.04885
C214	C244	0.03599
C215	O65	0.03712
C216	O66	0.03823
C216	O70	0.04740
C216	C260	0.03443
C217	C227	0.03663
C217	H174	0.03241
C217	C411	0.05239
C218	C220	0.05398
C218	C228	0.03738
C219	C237	0.03680
C220	C222	0.03852
C221	C229	0.03673
C221	C411	0.04044
C221	H803	0.04116
C222	C230	0.03918
C222	H177	0.04148
C223	C225	0.03874
C223	C235	0.05056
C223	H178	0.03016
C224	C236	0.05282
C224	C994	0.03379
C225	N71	0.03720
C225	N79	0.05006
C226	H167	0.04015
C227	N69	0.03970
C227	N77	0.05140
C228	H169	0.04145
C228	N70	0.03696
C229	H181	0.03097
C229	N69	0.05123
C230	N70	0.05235
C230	N78	0.03665
C231	C233	0.03833
C231	H182	0.02877
C231	N71	0.04885
C232	C234	0.03622
C232	N72	0.05159
C232	N80	0.03802
C233	C235	0.03740
C233	H172	0.03884
C234	C236	0.04138
C234	H184	0.04129
C235	C239	0.03996
C237	O75	0.03939
C237	O327	0.04834
C238	O76	0.03500
C238	O80	0.04983
C238	C460	0.04257
C239	O69	0.04943
C239	O73	0.03690
C240	O74	0.03738
C240	O78	0.04798
C240	C284	0.03595
H162	C266	0.03146
H164	C390	0.04108
H175	C434	0.03294
H179	C248	0.03434
H183	C977	0.04065
H185	N73	0.02492
H186	N73	0.03821
H187	N74	0.02661
H188	N74	0.03037
H189	N75	0.02850
H190	N75	0.02777
H191	N76	0.02483
H192	N76	0.03753
H193	N77	0.02688
H194	N77	0.02977
H195	N78	0.02900
H196	N78	0.04131
H197	N79	0.02971
H198	N79	0.02809
H199	N80	0.02941
H200	N80	0.04052
N65	Ni17	0.05074
N66	Ni20	0.04988
N67	Ni17	0.05282
N68	Ni18	0.05049
N69	Ni19	0.05083
N70	Ni18	0.05237
N71	Ni19	0.05325
N72	C994	0.03911
N72	Ni84	0.05185
N74	C972	0.05116
Ni17	O66	0.06719
Ni17	O68	0.06423
Ni17	O70	0.04606
Ni17	O72	0.04790
Ni18	O67	0.06637
Ni18	O69	0.05339
Ni18	O73	0.06377
Ni18	O79	0.04890
Ni19	O74	0.06696
Ni19	O76	0.05650
Ni19	O78	0.04713
Ni20	O65	0.04780
Ni20	O71	0.05067
O75	Ni84	0.06403
O77	C983	0.04726
O80	H388	0.04212
C241	C251	0.03209
C241	C435	0.05211
C241	H361	0.03473
C242	C252	0.03552
C243	C261	0.03419
C244	C434	0.05256
C244	C438	0.04116
C245	C253	0.03290
C245	C435	0.04350
C245	H376	0.04086
C246	C254	0.03606
C247	C249	0.03749
C247	C259	0.05271
C247	H205	0.03052
C248	C250	0.03245
C248	C260	0.05168
C249	N83	0.03686
C249	N91	0.05077
C250	H220	0.04018
C250	N84	0.04122
C251	H208	0.04057
C251	N81	0.04143
C252	N82	0.04057
C253	N81	0.05184
C253	N89	0.04097
C254	H210	0.03125
C254	N82	0.05066
C255	C257	0.03808
C255	H211	0.02837
C255	N83	0.05073
C256	C258	0.03342
C256	N84	0.05131
C256	N92	0.04065
C257	C259	0.03732
C258	C260	0.04328
C258	H213	0.04056
C259	C263	0.04012
C261	O83	0.03888
C261	O95	0.04740
C262	O84	0.03858
C262	O88	0.04885
C262	C292	0.03599
C263	O81	0.03712
C264	O82	0.03823
C264	O86	0.04740
C264	C308	0.03443
C265	C275	0.03663
C265	H214	0.03241
C265	C459	0.05239
C266	C268	0.05398
C266	C276	0.03738
C267	C285	0.03680
C268	C270	0.03852
C269	C277	0.03673
C269	C459	0.04044
C269	H843	0.04116
C270	C278	0.03918
C270	H217	0.04148
C271	C273	0.03874
C271	C283	0.05056
C271	H218	0.03016
C272	C284	0.05282
C272	H806	0.03310
C272	C1042	0.03379
C273	N87	0.03720
C273	N95	0.05006
C274	H207	0.04015
C275	N85	0.03970
C275	N93	0.05140
C276	H209	0.04145
C276	N86	0.03696
C277	H221	0.03097
C277	N85	0.05123
C278	N86	0.05235
C278	N94	0.03665
C279	C281	0.03833
C279	H222	0.02877
C279	N87	0.04885
C280	C282	0.03622
C280	N88	0.05159
C280	N96	0.03802
C281	C283	0.03740
C281	H212	0.03884
C282	C284	0.04138
C282	H224	0.04129
C283	C287	0.03996
C285	O91	0.03939
C285	O343	0.04834
C286	O92	0.03500
C286	O96	0.04983
C286	C508	0.04257
C287	O85	0.04943
C287	O89	0.03690
C288	O90	0.03738
C288	O94	0.04798
C288	C332	0.03595
H202	C314	0.03146
H204	C438	0.04108
H215	C482	0.03294
H219	C296	0.03434
H223	C1025	0.04065
H225	N89	0.02492
H226	N89	0.03821
H227	N90	0.02661
H228	N90	0.03037
H229	N91	0.02850
H230	N91	0.02777
H231	N92	0.02483
H232	N92	0.03753
H233	N93	0.02688
H234	N93	0.02977
H235	N94	0.02900
H236	N94	0.04131
H237	N95	0.02971
H238	N95	0.02809
H239	N96	0.02941
H240	N96	0.04052
N81	Ni21	0.05074
N82	Ni24	0.04988
N83	Ni21	0.05282
N84	Ni22	0.05049
N85	Ni23	0.05083
N86	Ni22	0.05237
N87	Ni23	0.05325
N88	C1042	0.03911
N88	Ni88	0.05185
N90	C1020	0.05116
Ni21	O82	0.06719
Ni21	O84	0.06423
Ni21	O86	0.04606
Ni21	O88	0.04790
Ni22	O83	0.06637
Ni22	O85	0.05339
Ni22	O89	0.06377
Ni22	O95	0.04890
Ni23	O90	0.06696
Ni23	O92	0.05650
Ni23	O94	0.04713
Ni24	O81	0.04780
Ni24	O87	0.05067
O91	Ni88	0.06403
O93	C1031	0.04726
O96	H428	0.04212
C289	C299	0.03209
C289	C483	0.05211
C289	H401	0.03473
C290	C300	0.03552
C291	C309	0.03419
C292	C482	0.05256
C292	C486	0.04116
C293	C301	0.03290
C293	C483	0.04350
C293	H416	0.04086
C294	C302	0.03606
C295	C297	0.03749
C295	C307	0.05271
C295	H245	0.03052
C296	C298	0.03245
C296	C308	0.05168
C297	N99	0.03686
C297	N107	0.05077
C298	H260	0.04018
C298	N100	0.04122
C299	H248	0.04057
C299	N97	0.04143
C300	N98	0.04057
C301	N97	0.05184
C301	N105	0.04097
C302	H250	0.03125
C302	N98	0.05066
C303	C305	0.03808
C303	H251	0.02837
C303	N99	0.05073
C304	C306	0.03342
C304	N100	0.05131
C304	N108	0.04065
C305	C307	0.03732
C306	C308	0.04328
C306	H253	0.04056
C307	C311	0.04012
C309	O99	0.03888
C309	O111	0.04740
C310	O100	0.03858
C310	O104	0.04885
C310	C340	0.03599
C311	O97	0.03712
C312	O98	0.03823
C312	O102	0.04740
C312	C356	0.03443
C313	C323	0.03663
C313	H254	0.03241
C313	C507	0.05239
C314	C316	0.05398
C314	C324	0.03738
C315	C333	0.03680
C316	C318	0.03852
C317	C325	0.03673
C317	C507	0.04044
C317	H883	0.04116
C318	C326	0.03918
C318	H257	0.04148
C319	C321	0.03874
C319	C331	0.05056
C319	H258	0.03016
C320	C332	0.05282
C320	H846	0.03310
C320	C1090	0.03379
C321	N103	0.03720
C321	N111	0.05006
C322	H247	0.04015
C323	N101	0.03970
C323	N109	0.05140
C324	H249	0.04145
C324	N102	0.03696
C325	H261	0.03097
C325	N101	0.05123
C326	N102	0.05235
C326	N110	0.03665
C327	C329	0.03833
C327	H262	0.02877
C327	N103	0.04885
C328	C330	0.03622
C328	N104	0.05159
C328	N112	0.03802
C329	C331	0.03740
C329	H252	0.03884
C330	C332	0.04138
C330	H264	0.04129
C331	C335	0.03996
C333	O107	0.03939
C333	O359	0.04834
C334	O108	0.03500
C334	O112	0.04983
C334	C556	0.04257
C335	O101	0.04943
C335	O105	0.03690
C336	O106	0.03738
C336	O110	0.04798
C336	C380	0.03595
H242	C362	0.03146
H244	C486	0.04108
H255	C530	0.03294
H259	C344	0.03434
H263	C1073	0.04065
H265	N105	0.02492
H266	N105	0.03821
H267	N106	0.02661
H268	N106	0.03037
H269	N107	0.02850
H270	N107	0.02777
H271	N108	0.02483
H272	N108	0.03753
H273	N109	0.02688
H274	N109	0.02977
H275	N110	0.02900
H276	N110	0.04131
H277	N111	0.02971
H278	N111	0.02809
H279	N112	0.02941
H280	N112	0.04052
N97	Ni25	0.05074
N98	Ni28	0.04988
N99	Ni25	0.05282
N100	Ni26	0.05049
N101	Ni27	0.05083
N102	Ni26	0.05237
N103	Ni27	0.05325
N104	C1090	0.03911
N104	Ni92	0.05185
N106	C1068	0.05116
Ni25	O98	0.06719
Ni25	O100	0.06423
Ni25	O102	0.04606
Ni25	O104	0.04790
Ni26	O99	0.06637
Ni26	O101	0.05339
Ni26	O105	0.06377
Ni26	O111	0.04890
Ni27	O106	0.06696
Ni27	O108	0.05650
Ni27	O110	0.04713
Ni28	O97	0.04780
Ni28	O103	0.05067
O107	Ni92	0.06403
O109	C1079	0.04726
O112	H468	0.04212
C337	C347	0.03209
C337	C531	0.05211
C337	H441	0.03473
C338	C348	0.03552
C339	C357	0.03419
C340	C530	0.05256
C340	C534	0.04116
C341	C349	0.03290
C341	C531	0.04350
C341	H456	0.04086
C342	C350	0.03606
C343	C345	0.03749
C343	C355	0.05271
C343	H285	0.03052
C344	C346	0.03245
C344	C356	0.05168
C345	N115	0.03686
C345	N123	0.05077
C346	H300	0.04018
C346	N116	0.04122
C347	H288	0.04057
C347	N113	0.04143
C348	N114	0.04057
C349	N113	0.05184
C349	N121	0.04097
C350	H290	0.03125
C350	N114	0.05066
C351	C353	0.03808
C351	H291	0.02837
C351	N115	0.05073
C352	C354	0.03342
C352	N116	0.05131
C352	N124	0.04065
C353	C355	0.03732
C354	C356	0.04328
C354	H293	0.04056
C355	C359	0.04012
C357	O115	0.03888
C357	O127	0.04740
C358	O116	0.03858
C358	O120	0.04885
C359	O113	0.03712
C360	O114	0.03823
C360	O118	0.04740
C361	C371	0.03663
C361	H294	0.03241
C361	C555	0.05239
C362	C364	0.05398
C362	C372	0.03738
C363	C381	0.03680
C364	C366	0.03852
C365	C373	0.03673
C365	C555	0.04044
C365	H923	0.04116
C366	C374	0.03918
C366	H297	0.04148
C367	C369	0.03874
C367	C379	0.05056
C367	H298	0.03016
C368	C380	0.05282
C368	H886	0.03310
C368	C1138	0.03379
C369	N119	0.03720
C369	N127	0.05006
C370	H287	0.04015
C371	N117	0.03970
C371	N125	0.05140
C372	H289	0.04145
C372	N118	0.03696
C373	H301	0.03097
C373	N117	0.05123
C374	N118	0.05235
C374	N126	0.03665
C375	C377	0.03833
C375	H302	0.02877
C375	N119	0.04885
C376	C378	0.03622
C376	N120	0.05159
C376	N128	0.03802
C377	C379	0.03740
C377	H292	0.03884
C378	C380	0.04138
C378	H304	0.04129
C379	C383	0.03996
C381	O123	0.03939
C381	O375	0.04834
C382	O124	0.03500
C382	O128	0.04983
C383	O117	0.04943
C383	O121	0.03690
C384	O122	0.03738
C384	O126	0.04798
H284	C534	0.04108
H303	C1121	0.04065
H305	N121	0.02492
H306	N121	0.03821
H307	N122	0.02661
H308	N122	0.03037
H309	N123	0.02850
H310	N123	0.02777
H311	N124	0.02483
H312	N124	0.03753
H313	N125	0.02688
H314	N125	0.02977
H315	N126	0.02900
H316	N126	0.04131
H317	N127	0.02971
H318	N127	0.02809
H319	N128	0.02941
H320	N128	0.04052
N113	Ni29	0.05074
N114	Ni32	0.04988
N115	Ni29	0.05282
N116	Ni30	0.05049
N117	Ni31	0.05083
N118	Ni30	0.05237
N119	Ni31	0.05325
N120	C1138	0.03911
N120	Ni96	0.05185
N122	C1116	0.05116
Ni29	O114	0.06719
Ni29	O116	0.06423
Ni29	O118	0.04606
Ni29	O120	0.04790
Ni30	O115	0.06637
Ni30	O117	0.05339
Ni30	O121	0.06377
Ni30	O127	0.04890
Ni31	O122	0.06696
Ni31	O124	0.05650
Ni31	O126	0.04713
Ni32	O113	0.04780
Ni32	O119	0.05067
O123	Ni96	0.06403
O125	C1127	0.04726
C385	C395	0.03209
C385	C579	0.05211
C385	H481	0.03473
C386	C396	0.03552
C387	C405	0.03419
C388	C578	0.05256
C388	C582	0.04116
C389	C397	0.03290
C389	C579	0.04350
C389	H496	0.04086
C390	C398	0.03606
C391	C393	0.03749
C391	C403	0.05271
C391	H325	0.03052
C392	C394	0.03245
C392	C404	0.05168
C393	N131	0.03686
C393	N139	0.05077
C394	H340	0.04018
C394	N132	0.04122
C395	H328	0.04057
C395	N129	0.04143
C396	N130	0.04057
C397	N129	0.05184
C397	N137	0.04097
C398	H330	0.03125
C398	N130	0.05066
C399	C401	0.03808
C399	H331	0.02837
C399	N131	0.05073
C400	C402	0.03342
C400	N132	0.05131
C400	N140	0.04065
C401	C403	0.03732
C402	C404	0.04328
C402	H333	0.04056
C403	C407	0.04012
C405	O131	0.03888
C405	O143	0.04740
C406	O132	0.03858
C406	O136	0.04885
C406	C436	0.03599
C407	O129	0.03712
C408	O130	0.03823
C408	O134	0.04740
C408	C452	0.03443
C409	C419	0.03663
C409	H334	0.03241
C409	C603	0.05239
C410	C412	0.05398
C410	C420	0.03738
C411	C429	0.03680
C412	C414	0.03852
C413	C421	0.03673
C413	C603	0.04044
C413	H963	0.04116
C414	C422	0.03918
C414	H337	0.04148
C415	C417	0.03874
C415	C427	0.05056
C415	H338	0.03016
C416	C428	0.05282
C416	C1186	0.03379
C417	N135	0.03720
C417	N143	0.05006
C418	H327	0.04015
C419	N133	0.03970
C419	N141	0.05140
C420	H329	0.04145
C420	N134	0.03696
C421	H341	0.03097
C421	N133	0.05123
C422	N134	0.05235
C422	N142	0.03665
C423	C425	0.03833
C423	H342	0.02877
C423	N135	0.04885
C424	C426	0.03622
C424	N136	0.05159
C424	N144	0.03802
C425	C427	0.03740
C425	H332	0.03884
C426	C428	0.04138
C426	H344	0.04129
C427	C431	0.03996
C429	O139	0.03939
C429	O391	0.04834
C430	O140	0.03500
C430	O144	0.04983
C430	C652	0.04257
C431	O133	0.04943
C431	O137	0.03690
C432	O138	0.03738
C432	O142	0.04798
C432	C476	0.03595
H322	C458	0.03146
H324	C582	0.04108
H335	C626	0.03294
H339	C440	0.03434
H343	C1169	0.04065
H345	N137	0.02492
H346	N137	0.03821
H347	N138	0.02661
H348	N138	0.03037
H349	N139	0.02850
H350	N139	0.02777
H351	N140	0.02483
H352	N140	0.03753
H353	N141	0.02688
H354	N141	0.02977
H355	N142	0.02900
H356	N142	0.04131
H357	N143	0.02971
H358	N143	0.02809
H359	N144	0.02941
H360	N144	0.04052
N129	Ni33	0.05074
N130	Ni36	0.04988
N131	Ni33	0.05282
N132	Ni34	0.05049
N133	Ni35	0.05083
N134	Ni34	0.05237
N135	Ni35	0.05325
N136	C1186	0.03911
N136	Ni100	0.05185
N138	C1164	0.05116
Ni33	O130	0.06719
Ni33	O132	0.06423
Ni33	O134	0.04606
Ni33	O136	0.04790
Ni34	O131	0.06637
Ni34	O133	0.05339
Ni34	O137	0.06377
Ni34	O143	0.04890
Ni35	O138	0.06696
Ni35	O140	0.05650
Ni35	O142	0.04713
Ni36	O129	0.04780
Ni36	O135	0.05067
O139	Ni100	0.06403
O141	C1175	0.04726
O144	H548	0.04212
C433	C443	0.03209
C433	C627	0.05211
C433	H521	0.03473
C434	C444	0.03552
C435	C453	0.03419
C436	C626	0.05256
C436	C630	0.04116
C437	C445	0.03290
C437	C627	0.04350
C437	H536	0.04086
C438	C446	0.03606
C439	C441	0.03749
C439	C451	0.05271
C439	H365	0.03052
C440	C442	0.03245
C440	C452	0.05168
C441	N147	0.03686
C441	N155	0.05077
C442	H380	0.04018
C442	N148	0.04122
C443	H368	0.04057
C443	N145	0.04143
C444	N146	0.04057
C445	N145	0.05184
C445	N153	0.04097
C446	H370	0.03125
C446	N146	0.05066
C447	C449	0.03808
C447	H371	0.02837
C447	N147	0.05073
C448	C450	0.03342
C448	N148	0.05131
C448	N156	0.04065
C449	C451	0.03732
C450	C452	0.04328
C450	H373	0.04056
C451	C455	0.04012
C453	O147	0.03888
C453	O159	0.04740
C454	O148	0.03858
C454	O152	0.04885
C454	C484	0.03599
C455	O145	0.03712
C456	O146	0.03823
C456	O150	0.04740
C456	C500	0.03443
C457	C467	0.03663
C457	H374	0.03241
C457	C651	0.05239
C458	C460	0.05398
C458	C468	0.03738
C459	C477	0.03680
C460	C462	0.03852
C461	C469	0.03673
C461	C651	0.04044
C461	H1003	0.04116
C462	C470	0.03918
C462	H377	0.04148
C463	C465	0.03874
C463	C475	0.05056
C463	H378	0.03016
C464	C476	0.05282
C464	H966	0.03310
C464	C1234	0.03379
C465	N151	0.03720
C465	N159	0.05006
C466	H367	0.04015
C467	N149	0.03970
C467	N157	0.05140
C468	H369	0.04145
C468	N150	0.03696
C469	H381	0.03097
C469	N149	0.05123
C470	N150	0.05235
C470	N158	0.03665
C471	C473	0.03833
C471	H382	0.02877
C471	N151	0.04885
C472	C474	0.03622
C472	N152	0.05159
C472	N160	0.03802
C473	C475	0.03740
C473	H372	0.03884
C474	C476	0.04138
C474	H384	0.04129
C475	C479	0.03996
C477	O155	0.03939
C477	O407	0.04834
C478	O156	0.03500
C478	O160	0.04983
C478	C700	0.04257
C479	O149	0.04943
C479	O153	0.03690
C480	O154	0.03738
C480	O158	0.04798
C480	C524	0.03595
H362	C506	0.03146
H364	C630	0.04108
H375	C674	0.03294
H379	C488	0.03434
H383	C1217	0.04065
H385	N153	0.02492
H386	N153	0.03821
H387	N154	0.02661
H388	N154	0.03037
H389	N155	0.02850
H390	N155	0.02777
H391	N156	0.02483
H392	N156	0.03753
H393	N157	0.02688
H394	N157	0.02977
H395	N158	0.02900
H396	N158	0.04131
H397	N159	0.02971
H398	N159	0.02809
H399	N160	0.02941
H400	N160	0.04052
N145	Ni37	0.05074
N146	Ni40	0.04988
N147	Ni37	0.05282
N148	Ni38	0.05049
N149	Ni39	0.05083
N150	Ni38	0.05237
N151	Ni39	0.05325
N152	C1234	0.03911
N152	Ni104	0.05185
N154	C1212	0.05116
Ni37	O146	0.06719
Ni37	O148	0.06423
Ni37	O150	0.04606
Ni37	O152	0.04790
Ni38	O147	0.06637
Ni38	O149	0.05339
Ni38	O153	0.06377
Ni38	O159	0.04890
Ni39	O154	0.06696
Ni39	O156	0.05650
Ni39	O158	0.04713
Ni40	O145	0.04780
Ni40	O151	0.05067
O155	Ni104	0.06403
O157	C1223	0.04726
O160	H588	0.04212
C481	C491	0.03209
C481	C675	0.05211
C481	H561	0.03473
C482	C492	0.03552
C483	C501	0.03419
C484	C674	0.05256
C484	C678	0.04116
C485	C493	0.03290
C485	C675	0.04350
C485	H576	0.04086
C486	C494	0.03606
C487	C489	0.03749
C487	C499	0.05271
C487	H405	0.03052
C488	C490	0.03245
C488	C500	0.05168
C489	N163	0.03686
C489	N171	0.05077
C490	H420	0.04018
C490	N164	0.04122
C491	H408	0.04057
C491	N161	0.04143
C492	N162	0.04057
C493	N161	0.05184
C493	N169	0.04097
C494	H410	0.03125
C494	N162	0.05066
C495	C497	0.03808
C495	H411	0.02837
C495	N163	0.05073
C496	C498	0.03342
C496	N164	0.05131
C496	N172	0.04065
C497	C499	0.03732
C498	C500	0.04328
C498	H413	0.04056
C499	C503	0.04012
C501	O163	0.03888
C501	O175	0.04740
C502	O164	0.03858
C502	O168	0.04885
C502	C532	0.03599
C503	O161	0.03712
C504	O162	0.03823
C504	O166	0.04740
C504	C548	0.03443
C505	C515	0.03663
C505	H414	0.03241
C505	C699	0.05239
C506	C508	0.05398
C506	C516	0.03738
C507	C525	0.03680
C508	C510	0.03852
C509	C517	0.03673
C509	C699	0.04044
C509	H1043	0.04116
C510	C518	0.03918
C510	H417	0.04148
C511	C513	0.03874
C511	C523	0.05056
C511	H418	0.03016
C512	C524	0.05282
C512	H1006	0.03310
C512	C1282	0.03379
C513	N167	0.03720
C513	N175	0.05006
C514	H407	0.04015
C515	N165	0.03970
C515	N173	0.05140
C516	H409	0.04145
C516	N166	0.03696
C517	H421	0.03097
C517	N165	0.05123
C518	N166	0.05235
C518	N174	0.03665
C519	C521	0.03833
C519	H422	0.02877
C519	N167	0.04885
C520	C522	0.03622
C520	N168	0.05159
C520	N176	0.03802
C521	C523	0.03740
C521	H412	0.03884
C522	C524	0.04138
C522	H424	0.04129
C523	C527	0.03996
C525	O171	0.03939
C525	O423	0.04834
C526	O172	0.03500
C526	O176	0.04983
C526	C748	0.04257
C527	O165	0.04943
C527	O169	0.03690
C528	O170	0.03738
C528	O174	0.04798
C528	C572	0.03595
H402	C554	0.03146
H404	C678	0.04108
H415	C722	0.03294
H419	C536	0.03434
H423	C1265	0.04065
H425	N169	0.02492
H426	N169	0.03821
H427	N170	0.02661
H428	N170	0.03037
H429	N171	0.02850
H430	N171	0.02777
H431	N172	0.02483
H432	N172	0.03753
H433	N173	0.02688
H434	N173	0.02977
H435	N174	0.02900
H436	N174	0.04131
H437	N175	0.02971
H438	N175	0.02809
H439	N176	0.02941
H440	N176	0.04052
N161	Ni41	0.05074
N162	Ni44	0.04988
N163	Ni41	0.05282
N164	Ni42	0.05049
N165	Ni43	0.05083
N166	Ni42	0.05237
N167	Ni43	0.05325
N168	C1282	0.03911
N168	Ni108	0.05185
N170	C1260	0.05116
Ni41	O162	0.06719
Ni41	O164	0.06423
Ni41	O166	0.04606
Ni41	O168	0.04790
Ni42	O163	0.06637
Ni42	O165	0.05339
Ni42	O169	0.06377
Ni42	O175	0.04890
Ni43	O170	0.06696
Ni43	O172	0.05650
Ni43	O174	0.04713
Ni44	O161	0.04780
Ni44	O167	0.05067
O171	Ni108	0.06403
O173	C1271	0.04726
O176	H628	0.04212
C529	C539	0.03209
C529	C723	0.05211
C529	H601	0.03473
C530	C540	0.03552
C531	C549	0.03419
C532	C722	0.05256
C532	C726	0.04116
C533	C541	0.03290
C533	C723	0.04350
C533	H616	0.04086
C534	C542	0.03606
C535	C537	0.03749
C535	C547	0.05271
C535	H445	0.03052
C536	C538	0.03245
C536	C548	0.05168
C537	N179	0.03686
C537	N187	0.05077
C538	H460	0.04018
C538	N180	0.04122
C539	H448	0.04057
C539	N177	0.04143
C540	N178	0.04057
C541	N177	0.05184
C541	N185	0.04097
C542	H450	0.03125
C542	N178	0.05066
C543	C545	0.03808
C543	H451	0.02837
C543	N179	0.05073
C544	C546	0.03342
C544	N180	0.05131
C544	N188	0.04065
C545	C547	0.03732
C546	C548	0.04328
C546	H453	0.04056
C547	C551	0.04012
C549	O179	0.03888
C549	O191	0.04740
C550	O180	0.03858
C550	O184	0.04885
C551	O177	0.03712
C552	O178	0.03823
C552	O182	0.04740
C553	C563	0.03663
C553	H454	0.03241
C553	C747	0.05239
C554	C556	0.05398
C554	C564	0.03738
C555	C573	0.03680
C556	C558	0.03852
C557	C565	0.03673
C557	C747	0.04044
C557	H1083	0.04116
C558	C566	0.03918
C558	H457	0.04148
C559	C561	0.03874
C559	C571	0.05056
C559	H458	0.03016
C560	C572	0.05282
C560	H1046	0.03310
C560	C1330	0.03379
C561	N183	0.03720
C561	N191	0.05006
C562	H447	0.04015
C563	N181	0.03970
C563	N189	0.05140
C564	H449	0.04145
C564	N182	0.03696
C565	H461	0.03097
C565	N181	0.05123
C566	N182	0.05235
C566	N190	0.03665
C567	C569	0.03833
C567	H462	0.02877
C567	N183	0.04885
C568	C570	0.03622
C568	N184	0.05159
C568	N192	0.03802
C569	C571	0.03740
C569	H452	0.03884
C570	C572	0.04138
C570	H464	0.04129
C571	C575	0.03996
C573	O187	0.03939
C573	O439	0.04834
C574	O188	0.03500
C574	O192	0.04983
C575	O181	0.04943
C575	O185	0.03690
C576	O186	0.03738
C576	O190	0.04798
H444	C726	0.04108
H463	C1313	0.04065
H465	N185	0.02492
H466	N185	0.03821
H467	N186	0.02661
H468	N186	0.03037
H469	N187	0.02850
H470	N187	0.02777
H471	N188	0.02483
H472	N188	0.03753
H473	N189	0.02688
H474	N189	0.02977
H475	N190	0.02900
H476	N190	0.04131
H477	N191	0.02971
H478	N191	0.02809
H479	N192	0.02941
H480	N192	0.04052
N177	Ni45	0.05074
N178	Ni48	0.04988
N179	Ni45	0.05282
N180	Ni46	0.05049
N181	Ni47	0.05083
N182	Ni46	0.05237
N183	Ni47	0.05325
N184	C1330	0.03911
N184	Ni112	0.05185
N186	C1308	0.05116
Ni45	O178	0.06719
Ni45	O180	0.06423
Ni45	O182	0.04606
Ni45	O184	0.04790
Ni46	O179	0.06637
Ni46	O181	0.05339
Ni46	O185	0.06377
Ni46	O191	0.04890
Ni47	O186	0.06696
Ni47	O188	0.05650
Ni47	O190	0.04713
Ni48	O177	0.04780
Ni48	O183	0.05067
O187	Ni112	0.06403
O189	C1319	0.04726
C577	C587	0.03209
C578	C588	0.03552
C579	C597	0.03419
C581	C589	0.03290
C582	C590	0.03606
C583	C585	0.03749
C583	C595	0.05271
C583	H485	0.03052
C584	C586	0.03245
C584	C596	0.05168
C585	N195	0.03686
C585	N203	0.05077
C586	H500	0.04018
C586	N196	0.04122
C587	H488	0.04057
C587	N193	0.04143
C588	N194	0.04057
C589	N193	0.05184
C589	N201	0.04097
C590	H490	0.03125
C590	N194	0.05066
C591	C593	0.03808
C591	H491	0.02837
C591	N195	0.05073
C592	C594	0.03342
C592	N196	0.05131
C592	N204	0.04065
C593	C595	0.03732
C594	C596	0.04328
C594	H493	0.04056
C595	C599	0.04012
C597	O195	0.03888
C597	O207	0.04740
C598	O196	0.03858
C598	O200	0.04885
C598	C628	0.03599
C599	O193	0.03712
C600	O194	0.03823
C600	O198	0.04740
C600	C644	0.03443
C601	C611	0.03663
C601	H494	0.03241
C602	C604	0.05398
C602	C612	0.03738
C603	C621	0.03680
C604	C606	0.03852
C605	C613	0.03673
C605	H1123	0.04116
C606	C614	0.03918
C606	H497	0.04148
C607	C609	0.03874
C607	C619	0.05056
C607	H498	0.03016
C608	C620	0.05282
C608	C1378	0.03379
C609	N199	0.03720
C609	N207	0.05006
C610	H487	0.04015
C611	N197	0.03970
C611	N205	0.05140
C612	H489	0.04145
C612	N198	0.03696
C613	H501	0.03097
C613	N197	0.05123
C614	N198	0.05235
C614	N206	0.03665
C615	C617	0.03833
C615	H502	0.02877
C615	N199	0.04885
C616	C618	0.03622
C616	N200	0.05159
C616	N208	0.03802
C617	C619	0.03740
C617	H492	0.03884
C618	C620	0.04138
C618	H504	0.04129
C619	C623	0.03996
C621	O203	0.03939
C621	O455	0.04834
C622	O204	0.03500
C622	O208	0.04983
C623	O197	0.04943
C623	O201	0.03690
C624	O202	0.03738
C624	O206	0.04798
C624	C668	0.03595
H482	C650	0.03146
H499	C632	0.03434
H503	C1361	0.04065
H505	N201	0.02492
H506	N201	0.03821
H507	N202	0.02661
H508	N202	0.03037
H509	N203	0.02850
H510	N203	0.02777
H511	N204	0.02483
H512	N204	0.03753
H513	N205	0.02688
H514	N205	0.02977
H515	N206	0.02900
H516	N206	0.04131
H517	N207	0.02971
H518	N207	0.02809
H519	N208	0.02941
H520	N208	0.04052
N193	Ni49	0.05074
N194	Ni52	0.04988
N195	Ni49	0.05282
N196	Ni50	0.05049
N197	Ni51	0.05083
N198	Ni50	0.05237
N199	Ni51	0.05325
N200	C1378	0.03911
N200	Ni116	0.05185
N202	C1356	0.05116
Ni49	O194	0.06719
Ni49	O196	0.06423
Ni49	O198	0.04606
Ni49	O200	0.04790
Ni50	O195	0.06637
Ni50	O197	0.05339
Ni50	O201	0.06377
Ni50	O207	0.04890
Ni51	O202	0.06696
Ni51	O204	0.05650
Ni51	O206	0.04713
Ni52	O193	0.04780
Ni52	O199	0.05067
O203	Ni116	0.06403
O205	C1367	0.04726
C625	C635	0.03209
C626	C636	0.03552
C627	C645	0.03419
C629	C637	0.03290
C630	C638	0.03606
C631	C633	0.03749
C631	C643	0.05271
C631	H525	0.03052
C632	C634	0.03245
C632	C644	0.05168
C633	N211	0.03686
C633	N219	0.05077
C634	H540	0.04018
C634	N212	0.04122
C635	H528	0.04057
C635	N209	0.04143
C636	N210	0.04057
C637	N209	0.05184
C637	N217	0.04097
C638	H530	0.03125
C638	N210	0.05066
C639	C641	0.03808
C639	H531	0.02837
C639	N211	0.05073
C640	C642	0.03342
C640	N212	0.05131
C640	N220	0.04065
C641	C643	0.03732
C642	C644	0.04328
C642	H533	0.04056
C643	C647	0.04012
C645	O211	0.03888
C645	O223	0.04740
C646	O212	0.03858
C646	O216	0.04885
C646	C676	0.03599
C647	O209	0.03712
C648	O210	0.03823
C648	O214	0.04740
C648	C692	0.03443
C649	C659	0.03663
C649	H534	0.03241
C650	C652	0.05398
C650	C660	0.03738
C651	C669	0.03680
C652	C654	0.03852
C653	C661	0.03673
C653	H1163	0.04116
C654	C662	0.03918
C654	H537	0.04148
C655	C657	0.03874
C655	C667	0.05056
C655	H538	0.03016
C656	C668	0.05282
C656	H1126	0.03310
C656	C1426	0.03379
C657	N215	0.03720
C657	N223	0.05006
C658	H527	0.04015
C659	N213	0.03970
C659	N221	0.05140
C660	H529	0.04145
C660	N214	0.03696
C661	H541	0.03097
C661	N213	0.05123
C662	N214	0.05235
C662	N222	0.03665
C663	C665	0.03833
C663	H542	0.02877
C663	N215	0.04885
C664	C666	0.03622
C664	N216	0.05159
C664	N224	0.03802
C665	C667	0.03740
C665	H532	0.03884
C666	C668	0.04138
C666	H544	0.04129
C667	C671	0.03996
C669	O219	0.03939
C669	O471	0.04834
C670	O220	0.03500
C670	O224	0.04983
C671	O213	0.04943
C671	O217	0.03690
C672	O218	0.03738
C672	O222	0.04798
C672	C716	0.03595
H522	C698	0.03146
H539	C680	0.03434
H543	C1409	0.04065
H545	N217	0.02492
H546	N217	0.03821
H547	N218	0.02661
H548	N218	0.03037
H549	N219	0.02850
H550	N219	0.02777
H551	N220	0.02483
H552	N220	0.03753
H553	N221	0.02688
H554	N221	0.02977
H555	N222	0.02900
H556	N222	0.04131
H557	N223	0.02971
H558	N223	0.02809
H559	N224	0.02941
H560	N224	0.04052
N209	Ni53	0.05074
N210	Ni56	0.04988
N211	Ni53	0.05282
N212	Ni54	0.05049
N213	Ni55	0.05083
N214	Ni54	0.05237
N215	Ni55	0.05325
N216	C1426	0.03911
N216	Ni120	0.05185
N218	C1404	0.05116
Ni53	O210	0.06719
Ni53	O212	0.06423
Ni53	O214	0.04606
Ni53	O216	0.04790
Ni54	O211	0.06637
Ni54	O213	0.05339
Ni54	O217	0.06377
Ni54	O223	0.04890
Ni55	O218	0.06696
Ni55	O220	0.05650
Ni55	O222	0.04713
Ni56	O209	0.04780
Ni56	O215	0.05067
O219	Ni120	0.06403
O221	C1415	0.04726
C673	C683	0.03209
C674	C684	0.03552
C675	C693	0.03419
C677	C685	0.03290
C678	C686	0.03606
C679	C681	0.03749
C679	C691	0.05271
C679	H565	0.03052
C680	C682	0.03245
C680	C692	0.05168
C681	N227	0.03686
C681	N235	0.05077
C682	H580	0.04018
C682	N228	0.04122
C683	H568	0.04057
C683	N225	0.04143
C684	N226	0.04057
C685	N225	0.05184
C685	N233	0.04097
C686	H570	0.03125
C686	N226	0.05066
C687	C689	0.03808
C687	H571	0.02837
C687	N227	0.05073
C688	C690	0.03342
C688	N228	0.05131
C688	N236	0.04065
C689	C691	0.03732
C690	C692	0.04328
C690	H573	0.04056
C691	C695	0.04012
C693	O227	0.03888
C693	O239	0.04740
C694	O228	0.03858
C694	O232	0.04885
C694	C724	0.03599
C695	O225	0.03712
C696	O226	0.03823
C696	O230	0.04740
C696	C740	0.03443
C697	C707	0.03663
C697	H574	0.03241
C698	C700	0.05398
C698	C708	0.03738
C699	C717	0.03680
C700	C702	0.03852
C701	C709	0.03673
C701	H1203	0.04116
C702	C710	0.03918
C702	H577	0.04148
C703	C705	0.03874
C703	C715	0.05056
C703	H578	0.03016
C704	C716	0.05282
C704	H1166	0.03310
C704	C1474	0.03379
C705	N231	0.03720
C705	N239	0.05006
C706	H567	0.04015
C707	N229	0.03970
C707	N237	0.05140
C708	H569	0.04145
C708	N230	0.03696
C709	H581	0.03097
C709	N229	0.05123
C710	N230	0.05235
C710	N238	0.03665
C711	C713	0.03833
C711	H582	0.02877
C711	N231	0.04885
C712	C714	0.03622
C712	N232	0.05159
C712	N240	0.03802
C713	C715	0.03740
C713	H572	0.03884
C714	C716	0.04138
C714	H584	0.04129
C715	C719	0.03996
C717	O235	0.03939
C717	O487	0.04834
C718	O236	0.03500
C718	O240	0.04983
C719	O229	0.04943
C719	O233	0.03690
C720	O234	0.03738
C720	O238	0.04798
C720	C764	0.03595
H562	C746	0.03146
H579	C728	0.03434
H583	C1457	0.04065
H585	N233	0.02492
H586	N233	0.03821
H587	N234	0.02661
H588	N234	0.03037
H589	N235	0.02850
H590	N235	0.02777
H591	N236	0.02483
H592	N236	0.03753
H593	N237	0.02688
H594	N237	0.02977
H595	N238	0.02900
H596	N238	0.04131
H597	N239	0.02971
H598	N239	0.02809
H599	N240	0.02941
H600	N240	0.04052
N225	Ni57	0.05074
N226	Ni60	0.04988
N227	Ni57	0.05282
N228	Ni58	0.05049
N229	Ni59	0.05083
N230	Ni58	0.05237
N231	Ni59	0.05325
N232	C1474	0.03911
N232	Ni124	0.05185
N234	C1452	0.05116
Ni57	O226	0.06719
Ni57	O228	0.06423
Ni57	O230	0.04606
Ni57	O232	0.04790
Ni58	O227	0.06637
Ni58	O229	0.05339
Ni58	O233	0.06377
Ni58	O239	0.04890
Ni59	O234	0.06696
Ni59	O236	0.05650
Ni59	O238	0.04713
Ni60	O225	0.04780
Ni60	O231	0.05067
O235	Ni124	0.06403
O237	C1463	0.04726
C721	C731	0.03209
C722	C732	0.03552
C723	C741	0.03419
C725	C733	0.03290
C726	C734	0.03606
C727	C729	0.03749
C727	C739	0.05271
C727	H605	0.03052
C728	C730	0.03245
C728	C740	0.05168
C729	N243	0.03686
C729	N251	0.05077
C730	H620	0.04018
C730	N244	0.04122
C731	H608	0.04057
C731	N241	0.04143
C732	N242	0.04057
C733	N241	0.05184
C733	N249	0.04097
C734	H610	0.03125
C734	N242	0.05066
C735	C737	0.03808
C735	H611	0.02837
C735	N243	0.05073
C736	C738	0.03342
C736	N244	0.05131
C736	N252	0.04065
C737	C739	0.03732
C738	C740	0.04328
C738	H613	0.04056
C739	C743	0.04012
C741	O243	0.03888
C741	O255	0.04740
C742	O244	0.03858
C742	O248	0.04885
C743	O241	0.03712
C744	O242	0.03823
C744	O246	0.04740
C745	C755	0.03663
C745	H614	0.03241
C746	C748	0.05398
C746	C756	0.03738
C747	C765	0.03680
C748	C750	0.03852
C749	C757	0.03673
C749	H1243	0.04116
C750	C758	0.03918
C750	H617	0.04148
C751	C753	0.03874
C751	C763	0.05056
C751	H618	0.03016
C752	C764	0.05282
C752	H1206	0.03310
C752	C1522	0.03379
C753	N247	0.03720
C753	N255	0.05006
C754	H607	0.04015
C755	N245	0.03970
C755	N253	0.05140
C756	H609	0.04145
C756	N246	0.03696
C757	H621	0.03097
C757	N245	0.05123
C758	N246	0.05235
C758	N254	0.03665
C759	C761	0.03833
C759	H622	0.02877
C759	N247	0.04885
C760	C762	0.03622
C760	N248	0.05159
C760	N256	0.03802
C761	C763	0.03740
C761	H612	0.03884
C762	C764	0.04138
C762	H624	0.04129
C763	C767	0.03996
C765	O251	0.03939
C765	O503	0.04834
C766	O252	0.03500
C766	O256	0.04983
C767	O245	0.04943
C767	O249	0.03690
C768	O250	0.03738
C768	O254	0.04798
H623	C1505	0.04065
H625	N249	0.02492
H626	N249	0.03821
H627	N250	0.02661
H628	N250	0.03037
H629	N251	0.02850
H630	N251	0.02777
H631	N252	0.02483
H632	N252	0.03753
H633	N253	0.02688
H634	N253	0.02977
H635	N254	0.02900
H636	N254	0.04131
H637	N255	0.02971
H638	N255	0.02809
H639	N256	0.02941
H640	N256	0.04052
N241	Ni61	0.05074
N242	Ni64	0.04988
N243	Ni61	0.05282
N244	Ni62	0.05049
N245	Ni63	0.05083
N246	Ni62	0.05237
N247	Ni63	0.05325
N248	C1522	0.03911
N248	Ni128	0.05185
N250	C1500	0.05116
Ni61	O242	0.06719
Ni61	O244	0.06423
Ni61	O246	0.04606
Ni61	O248	0.04790
Ni62	O243	0.06637
Ni62	O245	0.05339
Ni62	O249	0.06377
Ni62	O255	0.04890
Ni63	O250	0.06696
Ni63	O252	0.05650
Ni63	O254	0.04713
Ni64	O241	0.04780
Ni64	O247	0.05067
O251	Ni128	0.06403
O253	C1511	0.04726
C769	C779	0.03209
C769	C963	0.05211
C769	H801	0.03473
C770	C780	0.03552
C771	C789	0.03419
C772	C962	0.05256
C772	C966	0.04116
C773	C781	0.03290
C773	C963	0.04350
C773	H816	0.04086
C774	C782	0.03606
C775	C777	0.03749
C775	C787	0.05271
C775	H645	0.03052
C776	C778	0.03245
C776	C788	0.05168
C777	N259	0.03686
C777	N267	0.05077
C778	H660	0.04018
C778	N260	0.04122
C779	H648	0.04057
C779	N257	0.04143
C780	N258	0.04057
C781	N257	0.05184
C781	N265	0.04097
C782	H650	0.03125
C782	N258	0.05066
C783	C785	0.03808
C783	H651	0.02837
C783	N259	0.05073
C784	C786	0.03342
C784	N260	0.05131
C784	N268	0.04065
C785	C787	0.03732
C786	C788	0.04328
C786	H653	0.04056
C787	C791	0.04012
C789	O259	0.03888
C789	O271	0.04740
C790	O260	0.03858
C790	O264	0.04885
C790	C820	0.03599
C791	O257	0.03712
C792	O258	0.03823
C792	O262	0.04740
C792	C836	0.03443
C793	C803	0.03663
C793	H654	0.03241
C793	C987	0.05239
C794	C796	0.05398
C794	C804	0.03738
C795	C813	0.03680
C796	C798	0.03852
C797	C805	0.03673
C797	C987	0.04044
C798	C806	0.03918
C798	H657	0.04148
C799	C801	0.03874
C799	C811	0.05056
C799	H658	0.03016
C800	C812	0.05282
C801	N263	0.03720
C801	N271	0.05006
C802	H647	0.04015
C803	N261	0.03970
C803	N269	0.05140
C804	H649	0.04145
C804	N262	0.03696
C805	H661	0.03097
C805	N261	0.05123
C806	N262	0.05235
C806	N270	0.03665
C807	C809	0.03833
C807	H662	0.02877
C807	N263	0.04885
C808	C810	0.03622
C808	N264	0.05159
C808	N272	0.03802
C809	C811	0.03740
C809	H652	0.03884
C810	C812	0.04138
C810	H664	0.04129
C811	C815	0.03996
C813	O267	0.03939
C814	O268	0.03500
C814	O272	0.04983
C814	C1036	0.04257
C815	O261	0.04943
C815	O265	0.03690
C816	O266	0.03738
C816	O270	0.04798
C816	C860	0.03595
H642	C842	0.03146
H644	C966	0.04108
H655	C1010	0.03294
H659	C824	0.03434
H665	N265	0.02492
H666	N265	0.03821
H667	N266	0.02661
H668	N266	0.03037
H669	N267	0.02850
H670	N267	0.02777
H671	N268	0.02483
H672	N268	0.03753
H673	N269	0.02688
H674	N269	0.02977
H675	N270	0.02900
H676	N270	0.04131
H677	N271	0.02971
H678	N271	0.02809
H679	N272	0.02941
H680	N272	0.04052
N257	Ni65	0.05074
N258	Ni68	0.04988
N259	Ni65	0.05282
N260	Ni66	0.05049
N261	Ni67	0.05083
N262	Ni66	0.05237
N263	Ni67	0.05325
Ni65	O258	0.06719
Ni65	O260	0.06423
Ni65	O262	0.04606
Ni65	O264	0.04790
Ni66	O259	0.06637
Ni66	O261	0.05339
Ni66	O265	0.06377
Ni66	O271	0.04890
Ni67	O266	0.06696
Ni67	O268	0.05650
Ni67	O270	0.04713
Ni68	O257	0.04780
Ni68	O263	0.05067
O272	H868	0.04212
C817	C827	0.03209
C817	C1011	0.05211
C817	H841	0.03473
C818	C828	0.03552
C819	C837	0.03419
C820	C1010	0.05256
C820	C1014	0.04116
C821	C829	0.03290
C821	C1011	0.04350
C821	H856	0.04086
C822	C830	0.03606
C823	C825	0.03749
C823	C835	0.05271
C823	H685	0.03052
C824	C826	0.03245
C824	C836	0.05168
C825	N275	0.03686
C825	N283	0.05077
C826	H700	0.04018
C826	N276	0.04122
C827	H688	0.04057
C827	N273	0.04143
C828	N274	0.04057
C829	N273	0.05184
C829	N281	0.04097
C830	H690	0.03125
C830	N274	0.05066
C831	C833	0.03808
C831	H691	0.02837
C831	N275	0.05073
C832	C834	0.03342
C832	N276	0.05131
C832	N284	0.04065
C833	C835	0.03732
C834	C836	0.04328
C834	H693	0.04056
C835	C839	0.04012
C837	O275	0.03888
C837	O287	0.04740
C838	O276	0.03858
C838	O280	0.04885
C838	C868	0.03599
C839	O273	0.03712
C840	O274	0.03823
C840	O278	0.04740
C840	C884	0.03443
C841	C851	0.03663
C841	H694	0.03241
C841	C1035	0.05239
C842	C844	0.05398
C842	C852	0.03738
C843	C861	0.03680
C844	C846	0.03852
C845	C853	0.03673
C845	C1035	0.04044
C846	C854	0.03918
C846	H697	0.04148
C847	C849	0.03874
C847	C859	0.05056
C847	H698	0.03016
C848	C860	0.05282
C849	N279	0.03720
C849	N287	0.05006
C850	H687	0.04015
C851	N277	0.03970
C851	N285	0.05140
C852	H689	0.04145
C852	N278	0.03696
C853	H701	0.03097
C853	N277	0.05123
C854	N278	0.05235
C854	N286	0.03665
C855	C857	0.03833
C855	H702	0.02877
C855	N279	0.04885
C856	C858	0.03622
C856	N280	0.05159
C856	N288	0.03802
C857	C859	0.03740
C857	H692	0.03884
C858	C860	0.04138
C858	H704	0.04129
C859	C863	0.03996
C861	O283	0.03939
C862	O284	0.03500
C862	O288	0.04983
C862	C1084	0.04257
C863	O277	0.04943
C863	O281	0.03690
C864	O282	0.03738
C864	O286	0.04798
C864	C908	0.03595
H682	C890	0.03146
H684	C1014	0.04108
H695	C1058	0.03294
H699	C872	0.03434
H705	N281	0.02492
H706	N281	0.03821
H707	N282	0.02661
H708	N282	0.03037
H709	N283	0.02850
H710	N283	0.02777
H711	N284	0.02483
H712	N284	0.03753
H713	N285	0.02688
H714	N285	0.02977
H715	N286	0.02900
H716	N286	0.04131
H717	N287	0.02971
H718	N287	0.02809
H719	N288	0.02941
H720	N288	0.04052
N273	Ni69	0.05074
N274	Ni72	0.04988
N275	Ni69	0.05282
N276	Ni70	0.05049
N277	Ni71	0.05083
N278	Ni70	0.05237
N279	Ni71	0.05325
Ni69	O274	0.06719
Ni69	O276	0.06423
Ni69	O278	0.04606
Ni69	O280	0.04790
Ni70	O275	0.06637
Ni70	O277	0.05339
Ni70	O281	0.06377
Ni70	O287	0.04890
Ni71	O282	0.06696
Ni71	O284	0.05650
Ni71	O286	0.04713
Ni72	O273	0.04780
Ni72	O279	0.05067
O288	H908	0.04212
C865	C875	0.03209
C865	C1059	0.05211
C865	H881	0.03473
C866	C876	0.03552
C867	C885	0.03419
C868	C1058	0.05256
C868	C1062	0.04116
C869	C877	0.03290
C869	C1059	0.04350
C869	H896	0.04086
C870	C878	0.03606
C871	C873	0.03749
C871	C883	0.05271
C871	H725	0.03052
C872	C874	0.03245
C872	C884	0.05168
C873	N291	0.03686
C873	N299	0.05077
C874	H740	0.04018
C874	N292	0.04122
C875	H728	0.04057
C875	N289	0.04143
C876	N290	0.04057
C877	N289	0.05184
C877	N297	0.04097
C878	H730	0.03125
C878	N290	0.05066
C879	C881	0.03808
C879	H731	0.02837
C879	N291	0.05073
C880	C882	0.03342
C880	N292	0.05131
C880	N300	0.04065
C881	C883	0.03732
C882	C884	0.04328
C882	H733	0.04056
C883	C887	0.04012
C885	O291	0.03888
C885	O303	0.04740
C886	O292	0.03858
C886	O296	0.04885
C886	C916	0.03599
C887	O289	0.03712
C888	O290	0.03823
C888	O294	0.04740
C888	C932	0.03443
C889	C899	0.03663
C889	H734	0.03241
C889	C1083	0.05239
C890	C892	0.05398
C890	C900	0.03738
C891	C909	0.03680
C892	C894	0.03852
C893	C901	0.03673
C893	C1083	0.04044
C894	C902	0.03918
C894	H737	0.04148
C895	C897	0.03874
C895	C907	0.05056
C895	H738	0.03016
C896	C908	0.05282
C897	N295	0.03720
C897	N303	0.05006
C898	H727	0.04015
C899	N293	0.03970
C899	N301	0.05140
C900	H729	0.04145
C900	N294	0.03696
C901	H741	0.03097
C901	N293	0.05123
C902	N294	0.05235
C902	N302	0.03665
C903	C905	0.03833
C903	H742	0.02877
C903	N295	0.04885
C904	C906	0.03622
C904	N296	0.05159
C904	N304	0.03802
C905	C907	0.03740
C905	H732	0.03884
C906	C908	0.04138
C906	H744	0.04129
C907	C911	0.03996
C909	O299	0.03939
C910	O300	0.03500
C910	O304	0.04983
C910	C1132	0.04257
C911	O293	0.04943
C911	O297	0.03690
C912	O298	0.03738
C912	O302	0.04798
C912	C956	0.03595
H722	C938	0.03146
H724	C1062	0.04108
H735	C1106	0.03294
H739	C920	0.03434
H745	N297	0.02492
H746	N297	0.03821
H747	N298	0.02661
H748	N298	0.03037
H749	N299	0.02850
H750	N299	0.02777
H751	N300	0.02483
H752	N300	0.03753
H753	N301	0.02688
H754	N301	0.02977
H755	N302	0.02900
H756	N302	0.04131
H757	N303	0.02971
H758	N303	0.02809
H759	N304	0.02941
H760	N304	0.04052
N289	Ni73	0.05074
N290	Ni76	0.04988
N291	Ni73	0.05282
N292	Ni74	0.05049
N293	Ni75	0.05083
N294	Ni74	0.05237
N295	Ni75	0.05325
Ni73	O290	0.06719
Ni73	O292	0.06423
Ni73	O294	0.04606
Ni73	O296	0.04790
Ni74	O291	0.06637
Ni74	O293	0.05339
Ni74	O297	0.06377
Ni74	O303	0.04890
Ni75	O298	0.06696
Ni75	O300	0.05650
Ni75	O302	0.04713
Ni76	O289	0.04780
Ni76	O295	0.05067
O304	H948	0.04212
C913	C923	0.03209
C913	C1107	0.05211
C913	H921	0.03473
C914	C924	0.03552
C915	C933	0.03419
C916	C1106	0.05256
C916	C1110	0.04116
C917	C925	0.03290
C917	C1107	0.04350
C917	H936	0.04086
C918	C926	0.03606
C919	C921	0.03749
C919	C931	0.05271
C919	H765	0.03052
C920	C922	0.03245
C920	C932	0.05168
C921	N307	0.03686
C921	N315	0.05077
C922	H780	0.04018
C922	N308	0.04122
C923	H768	0.04057
C923	N305	0.04143
C924	N306	0.04057
C925	N305	0.05184
C925	N313	0.04097
C926	H770	0.03125
C926	N306	0.05066
C927	C929	0.03808
C927	H771	0.02837
C927	N307	0.05073
C928	C930	0.03342
C928	N308	0.05131
C928	N316	0.04065
C929	C931	0.03732
C930	C932	0.04328
C930	H773	0.04056
C931	C935	0.04012
C933	O307	0.03888
C933	O319	0.04740
C934	O308	0.03858
C934	O312	0.04885
C935	O305	0.03712
C936	O306	0.03823
C936	O310	0.04740
C937	C947	0.03663
C937	H774	0.03241
C937	C1131	0.05239
C938	C940	0.05398
C938	C948	0.03738
C939	C957	0.03680
C940	C942	0.03852
C941	C949	0.03673
C941	C1131	0.04044
C942	C950	0.03918
C942	H777	0.04148
C943	C945	0.03874
C943	C955	0.05056
C943	H778	0.03016
C944	C956	0.05282
C945	N311	0.03720
C945	N319	0.05006
C946	H767	0.04015
C947	N309	0.03970
C947	N317	0.05140
C948	H769	0.04145
C948	N310	0.03696
C949	H781	0.03097
C949	N309	0.05123
C950	N310	0.05235
C950	N318	0.03665
C951	C953	0.03833
C951	H782	0.02877
C951	N311	0.04885
C952	C954	0.03622
C952	N312	0.05159
C952	N320	0.03802
C953	C955	0.03740
C953	H772	0.03884
C954	C956	0.04138
C954	H784	0.04129
C955	C959	0.03996
C957	O315	0.03939
C958	O316	0.03500
C958	O320	0.04983
C959	O309	0.04943
C959	O313	0.03690
C960	O314	0.03738
C960	O318	0.04798
H764	C1110	0.04108
H785	N313	0.02492
H786	N313	0.03821
H787	N314	0.02661
H788	N314	0.03037
H789	N315	0.02850
H790	N315	0.02777
H791	N316	0.02483
H792	N316	0.03753
H793	N317	0.02688
H794	N317	0.02977
H795	N318	0.02900
H796	N318	0.04131
H797	N319	0.02971
H798	N319	0.02809
H799	N320	0.02941
H800	N320	0.04052
N305	Ni77	0.05074
N306	Ni80	0.04988
N307	Ni77	0.05282
N308	Ni78	0.05049
N309	Ni79	0.05083
N310	Ni78	0.05237
N311	Ni79	0.05325
Ni77	O306	0.06719
Ni77	O308	0.06423
Ni77	O310	0.04606
Ni77	O312	0.04790
Ni78	O307	0.06637
Ni78	O309	0.05339
Ni78	O313	0.06377
Ni78	O319	0.04890
Ni79	O314	0.06696
Ni79	O316	0.05650
Ni79	O318	0.04713
Ni80	O305	0.04780
Ni80	O311	0.05067
C961	C971	0.03209
C961	C1155	0.05211
C961	H961	0.03473
C962	C972	0.03552
C963	C981	0.03419
C964	C1154	0.05256
C964	C1158	0.04116
C965	C973	0.03290
C965	C1155	0.04350
C965	H976	0.04086
C966	C974	0.03606
C967	C969	0.03749
C967	C979	0.05271
C967	H805	0.03052
C968	C970	0.03245
C968	C980	0.05168
C969	N323	0.03686
C969	N331	0.05077
C970	H820	0.04018
C970	N324	0.04122
C971	H808	0.04057
C971	N321	0.04143
C972	N322	0.04057
C973	N321	0.05184
C973	N329	0.04097
C974	H810	0.03125
C974	N322	0.05066
C975	C977	0.03808
C975	H811	0.02837
C975	N323	0.05073
C976	C978	0.03342
C976	N324	0.05131
C976	N332	0.04065
C977	C979	0.03732
C978	C980	0.04328
C978	H813	0.04056
C979	C983	0.04012
C981	O323	0.03888
C981	O335	0.04740
C982	O324	0.03858
C982	O328	0.04885
C982	C1012	0.03599
C983	O321	0.03712
C984	O322	0.03823
C984	O326	0.04740
C984	C1028	0.03443
C985	C995	0.03663
C985	H814	0.03241
C985	C1179	0.05239
C986	C988	0.05398
C986	C996	0.03738
C987	C1005	0.03680
C988	C990	0.03852
C989	C997	0.03673
C989	C1179	0.04044
C990	C998	0.03918
C990	H817	0.04148
C991	C993	0.03874
C991	C1003	0.05056
C991	H818	0.03016
C992	C1004	0.05282
C993	N327	0.03720
C993	N335	0.05006
C994	H807	0.04015
C995	N325	0.03970
C995	N333	0.05140
C996	H809	0.04145
C996	N326	0.03696
C997	H821	0.03097
C997	N325	0.05123
C998	N326	0.05235
C998	N334	0.03665
C999	C1001	0.03833
C999	H822	0.02877
C999	N327	0.04885
C1000	C1002	0.03622
C1000	N328	0.05159
C1000	N336	0.03802
C1001	C1003	0.03740
C1001	H812	0.03884
C1002	C1004	0.04138
C1002	H824	0.04129
C1003	C1007	0.03996
C1005	O331	0.03939
C1006	O332	0.03500
C1006	O336	0.04983
C1006	C1228	0.04257
C1007	O325	0.04943
C1007	O329	0.03690
C1008	O330	0.03738
C1008	O334	0.04798
C1008	C1052	0.03595
H802	C1034	0.03146
H804	C1158	0.04108
H815	C1202	0.03294
H819	C1016	0.03434
H825	N329	0.02492
H826	N329	0.03821
H827	N330	0.02661
H828	N330	0.03037
H829	N331	0.02850
H830	N331	0.02777
H831	N332	0.02483
H832	N332	0.03753
H833	N333	0.02688
H834	N333	0.02977
H835	N334	0.02900
H836	N334	0.04131
H837	N335	0.02971
H838	N335	0.02809
H839	N336	0.02941
H840	N336	0.04052
N321	Ni81	0.05074
N322	Ni84	0.04988
N323	Ni81	0.05282
N324	Ni82	0.05049
N325	Ni83	0.05083
N326	Ni82	0.05237
N327	Ni83	0.05325
Ni81	O322	0.06719
Ni81	O324	0.06423
Ni81	O326	0.04606
Ni81	O328	0.04790
Ni82	O323	0.06637
Ni82	O325	0.05339
Ni82	O329	0.06377
Ni82	O335	0.04890
Ni83	O330	0.06696
Ni83	O332	0.05650
Ni83	O334	0.04713
Ni84	O321	0.04780
Ni84	O327	0.05067
O336	H1028	0.04212
C1009	C1019	0.03209
C1009	C1203	0.05211
C1009	H1001	0.03473
C1010	C1020	0.03552
C1011	C1029	0.03419
C1012	C1202	0.05256
C1012	C1206	0.04116
C1013	C1021	0.03290
C1013	C1203	0.04350
C1013	H1016	0.04086
C1014	C1022	0.03606
C1015	C1017	0.03749
C1015	C1027	0.05271
C1015	H845	0.03052
C1016	C1018	0.03245
C1016	C1028	0.05168
C1017	N339	0.03686
C1017	N347	0.05077
C1018	H860	0.04018
C1018	N340	0.04122
C1019	H848	0.04057
C1019	N337	0.04143
C1020	N338	0.04057
C1021	N337	0.05184
C1021	N345	0.04097
C1022	H850	0.03125
C1022	N338	0.05066
C1023	C1025	0.03808
C1023	H851	0.02837
C1023	N339	0.05073
C1024	C1026	0.03342
C1024	N340	0.05131
C1024	N348	0.04065
C1025	C1027	0.03732
C1026	C1028	0.04328
C1026	H853	0.04056
C1027	C1031	0.04012
C1029	O339	0.03888
C1029	O351	0.04740
C1030	O340	0.03858
C1030	O344	0.04885
C1030	C1060	0.03599
C1031	O337	0.03712
C1032	O338	0.03823
C1032	O342	0.04740
C1032	C1076	0.03443
C1033	C1043	0.03663
C1033	H854	0.03241
C1033	C1227	0.05239
C1034	C1036	0.05398
C1034	C1044	0.03738
C1035	C1053	0.03680
C1036	C1038	0.03852
C1037	C1045	0.03673
C1037	C1227	0.04044
C1038	C1046	0.03918
C1038	H857	0.04148
C1039	C1041	0.03874
C1039	C1051	0.05056
C1039	H858	0.03016
C1040	C1052	0.05282
C1041	N343	0.03720
C1041	N351	0.05006
C1042	H847	0.04015
C1043	N341	0.03970
C1043	N349	0.05140
C1044	H849	0.04145
C1044	N342	0.03696
C1045	H861	0.03097
C1045	N341	0.05123
C1046	N342	0.05235
C1046	N350	0.03665
C1047	C1049	0.03833
C1047	H862	0.02877
C1047	N343	0.04885
C1048	C1050	0.03622
C1048	N344	0.05159
C1048	N352	0.03802
C1049	C1051	0.03740
C1049	H852	0.03884
C1050	C1052	0.04138
C1050	H864	0.04129
C1051	C1055	0.03996
C1053	O347	0.03939
C1054	O348	0.03500
C1054	O352	0.04983
C1054	C1276	0.04257
C1055	O341	0.04943
C1055	O345	0.03690
C1056	O346	0.03738
C1056	O350	0.04798
C1056	C1100	0.03595
H842	C1082	0.03146
H844	C1206	0.04108
H855	C1250	0.03294
H859	C1064	0.03434
H865	N345	0.02492
H866	N345	0.03821
H867	N346	0.02661
H868	N346	0.03037
H869	N347	0.02850
H870	N347	0.02777
H871	N348	0.02483
H872	N348	0.03753
H873	N349	0.02688
H874	N349	0.02977
H875	N350	0.02900
H876	N350	0.04131
H877	N351	0.02971
H878	N351	0.02809
H879	N352	0.02941
H880	N352	0.04052
N337	Ni85	0.05074
N338	Ni88	0.04988
N339	Ni85	0.05282
N340	Ni86	0.05049
N341	Ni87	0.05083
N342	Ni86	0.05237
N343	Ni87	0.05325
Ni85	O338	0.06719
Ni85	O340	0.06423
Ni85	O342	0.04606
Ni85	O344	0.04790
Ni86	O339	0.06637
Ni86	O341	0.05339
Ni86	O345	0.06377
Ni86	O351	0.04890
Ni87	O346	0.06696
Ni87	O348	0.05650
Ni87	O350	0.04713
Ni88	O337	0.04780
Ni88	O343	0.05067
O352	H1068	0.04212
C1057	C1067	0.03209
C1057	C1251	0.05211
C1057	H1041	0.03473
C1058	C1068	0.03552
C1059	C1077	0.03419
C1060	C1250	0.05256
C1060	C1254	0.04116
C1061	C1069	0.03290
C1061	C1251	0.04350
C1061	H1056	0.04086
C1062	C1070	0.03606
C1063	C1065	0.03749
C1063	C1075	0.05271
C1063	H885	0.03052
C1064	C1066	0.03245
C1064	C1076	0.05168
C1065	N355	0.03686
C1065	N363	0.05077
C1066	H900	0.04018
C1066	N356	0.04122
C1067	H888	0.04057
C1067	N353	0.04143
C1068	N354	0.04057
C1069	N353	0.05184
C1069	N361	0.04097
C1070	H890	0.03125
C1070	N354	0.05066
C1071	C1073	0.03808
C1071	H891	0.02837
C1071	N355	0.05073
C1072	C1074	0.03342
C1072	N356	0.05131
C1072	N364	0.04065
C1073	C1075	0.03732
C1074	C1076	0.04328
C1074	H893	0.04056
C1075	C1079	0.04012
C1077	O355	0.03888
C1077	O367	0.04740
C1078	O356	0.03858
C1078	O360	0.04885
C1078	C1108	0.03599
C1079	O353	0.03712
C1080	O354	0.03823
C1080	O358	0.04740
C1080	C1124	0.03443
C1081	C1091	0.03663
C1081	H894	0.03241
C1081	C1275	0.05239
C1082	C1084	0.05398
C1082	C1092	0.03738
C1083	C1101	0.03680
C1084	C1086	0.03852
C1085	C1093	0.03673
C1085	C1275	0.04044
C1086	C1094	0.03918
C1086	H897	0.04148
C1087	C1089	0.03874
C1087	C1099	0.05056
C1087	H898	0.03016
C1088	C1100	0.05282
C1089	N359	0.03720
C1089	N367	0.05006
C1090	H887	0.04015
C1091	N357	0.03970
C1091	N365	0.05140
C1092	H889	0.04145
C1092	N358	0.03696
C1093	H901	0.03097
C1093	N357	0.05123
C1094	N358	0.05235
C1094	N366	0.03665
C1095	C1097	0.03833
C1095	H902	0.02877
C1095	N359	0.04885
C1096	C1098	0.03622
C1096	N360	0.05159
C1096	N368	0.03802
C1097	C1099	0.03740
C1097	H892	0.03884
C1098	C1100	0.04138
C1098	H904	0.04129
C1099	C1103	0.03996
C1101	O363	0.03939
C1102	O364	0.03500
C1102	O368	0.04983
C1102	C1324	0.04257
C1103	O357	0.04943
C1103	O361	0.03690
C1104	O362	0.03738
C1104	O366	0.04798
C1104	C1148	0.03595
H882	C1130	0.03146
H884	C1254	0.04108
H895	C1298	0.03294
H899	C1112	0.03434
H905	N361	0.02492
H906	N361	0.03821
H907	N362	0.02661
H908	N362	0.03037
H909	N363	0.02850
H910	N363	0.02777
H911	N364	0.02483
H912	N364	0.03753
H913	N365	0.02688
H914	N365	0.02977
H915	N366	0.02900
H916	N366	0.04131
H917	N367	0.02971
H918	N367	0.02809
H919	N368	0.02941
H920	N368	0.04052
N353	Ni89	0.05074
N354	Ni92	0.04988
N355	Ni89	0.05282
N356	Ni90	0.05049
N357	Ni91	0.05083
N358	Ni90	0.05237
N359	Ni91	0.05325
Ni89	O354	0.06719
Ni89	O356	0.06423
Ni89	O358	0.04606
Ni89	O360	0.04790
Ni90	O355	0.06637
Ni90	O357	0.05339
Ni90	O361	0.06377
Ni90	O367	0.04890
Ni91	O362	0.06696
Ni91	O364	0.05650
Ni91	O366	0.04713
Ni92	O353	0.04780
Ni92	O359	0.05067
O368	H1108	0.04212
C1105	C1115	0.03209
C1105	C1299	0.05211
C1105	H1081	0.03473
C1106	C1116	0.03552
C1107	C1125	0.03419
C1108	C1298	0.05256
C1108	C1302	0.04116
C1109	C1117	0.03290
C1109	C1299	0.04350
C1109	H1096	0.04086
C1110	C1118	0.03606
C1111	C1113	0.03749
C1111	C1123	0.05271
C1111	H925	0.03052
C1112	C1114	0.03245
C1112	C1124	0.05168
C1113	N371	0.03686
C1113	N379	0.05077
C1114	H940	0.04018
C1114	N372	0.04122
C1115	H928	0.04057
C1115	N369	0.04143
C1116	N370	0.04057
C1117	N369	0.05184
C1117	N377	0.04097
C1118	H930	0.03125
C1118	N370	0.05066
C1119	C1121	0.03808
C1119	H931	0.02837
C1119	N371	0.05073
C1120	C1122	0.03342
C1120	N372	0.05131
C1120	N380	0.04065
C1121	C1123	0.03732
C1122	C1124	0.04328
C1122	H933	0.04056
C1123	C1127	0.04012
C1125	O371	0.03888
C1125	O383	0.04740
C1126	O372	0.03858
C1126	O376	0.04885
C1127	O369	0.03712
C1128	O370	0.03823
C1128	O374	0.04740
C1129	C1139	0.03663
C1129	H934	0.03241
C1129	C1323	0.05239
C1130	C1132	0.05398
C1130	C1140	0.03738
C1131	C1149	0.03680
C1132	C1134	0.03852
C1133	C1141	0.03673
C1133	C1323	0.04044
C1134	C1142	0.03918
C1134	H937	0.04148
C1135	C1137	0.03874
C1135	C1147	0.05056
C1135	H938	0.03016
C1136	C1148	0.05282
C1137	N375	0.03720
C1137	N383	0.05006
C1138	H927	0.04015
C1139	N373	0.03970
C1139	N381	0.05140
C1140	H929	0.04145
C1140	N374	0.03696
C1141	H941	0.03097
C1141	N373	0.05123
C1142	N374	0.05235
C1142	N382	0.03665
C1143	C1145	0.03833
C1143	H942	0.02877
C1143	N375	0.04885
C1144	C1146	0.03622
C1144	N376	0.05159
C1144	N384	0.03802
C1145	C1147	0.03740
C1145	H932	0.03884
C1146	C1148	0.04138
C1146	H944	0.04129
C1147	C1151	0.03996
C1149	O379	0.03939
C1150	O380	0.03500
C1150	O384	0.04983
C1151	O373	0.04943
C1151	O377	0.03690
C1152	O378	0.03738
C1152	O382	0.04798
H924	C1302	0.04108
H945	N377	0.02492
H946	N377	0.03821
H947	N378	0.02661
H948	N378	0.03037
H949	N379	0.02850
H950	N379	0.02777
H951	N380	0.02483
H952	N380	0.03753
H953	N381	0.02688
H954	N381	0.02977
H955	N382	0.02900
H956	N382	0.04131
H957	N383	0.02971
H958	N383	0.02809
H959	N384	0.02941
H960	N384	0.04052
N369	Ni93	0.05074
N370	Ni96	0.04988
N371	Ni93	0.05282
N372	Ni94	0.05049
N373	Ni95	0.05083
N374	Ni94	0.05237
N375	Ni95	0.05325
Ni93	O370	0.06719
Ni93	O372	0.06423
Ni93	O374	0.04606
Ni93	O376	0.04790
Ni94	O371	0.06637
Ni94	O373	0.05339
Ni94	O377	0.06377
Ni94	O383	0.04890
Ni95	O378	0.06696
Ni95	O380	0.05650
Ni95	O382	0.04713
Ni96	O369	0.04780
Ni96	O375	0.05067
C1153	C1163	0.03209
C1153	C1347	0.05211
C1153	H1121	0.03473
C1154	C1164	0.03552
C1155	C1173	0.03419
C1156	C1346	0.05256
C1156	C1350	0.04116
C1157	C1165	0.03290
C1157	C1347	0.04350
C1157	H1136	0.04086
C1158	C1166	0.03606
C1159	C1161	0.03749
C1159	C1171	0.05271
C1159	H965	0.03052
C1160	C1162	0.03245
C1160	C1172	0.05168
C1161	N387	0.03686
C1161	N395	0.05077
C1162	H980	0.04018
C1162	N388	0.04122
C1163	H968	0.04057
C1163	N385	0.04143
C1164	N386	0.04057
C1165	N385	0.05184
C1165	N393	0.04097
C1166	H970	0.03125
C1166	N386	0.05066
C1167	C1169	0.03808
C1167	H971	0.02837
C1167	N387	0.05073
C1168	C1170	0.03342
C1168	N388	0.05131
C1168	N396	0.04065
C1169	C1171	0.03732
C1170	C1172	0.04328
C1170	H973	0.04056
C1171	C1175	0.04012
C1173	O387	0.03888
C1173	O399	0.04740
C1174	O388	0.03858
C1174	O392	0.04885
C1174	C1204	0.03599
C1175	O385	0.03712
C1176	O386	0.03823
C1176	O390	0.04740
C1176	C1220	0.03443
C1177	C1187	0.03663
C1177	H974	0.03241
C1177	C1371	0.05239
C1178	C1180	0.05398
C1178	C1188	0.03738
C1179	C1197	0.03680
C1180	C1182	0.03852
C1181	C1189	0.03673
C1181	C1371	0.04044
C1182	C1190	0.03918
C1182	H977	0.04148
C1183	C1185	0.03874
C1183	C1195	0.05056
C1183	H978	0.03016
C1184	C1196	0.05282
C1185	N391	0.03720
C1185	N399	0.05006
C1186	H967	0.04015
C1187	N389	0.03970
C1187	N397	0.05140
C1188	H969	0.04145
C1188	N390	0.03696
C1189	H981	0.03097
C1189	N389	0.05123
C1190	N390	0.05235
C1190	N398	0.03665
C1191	C1193	0.03833
C1191	H982	0.02877
C1191	N391	0.04885
C1192	C1194	0.03622
C1192	N392	0.05159
C1192	N400	0.03802
C1193	C1195	0.03740
C1193	H972	0.03884
C1194	C1196	0.04138
C1194	H984	0.04129
C1195	C1199	0.03996
C1197	O395	0.03939
C1198	O396	0.03500
C1198	O400	0.04983
C1198	C1420	0.04257
C1199	O389	0.04943
C1199	O393	0.03690
C1200	O394	0.03738
C1200	O398	0.04798
C1200	C1244	0.03595
H962	C1226	0.03146
H964	C1350	0.04108
H975	C1394	0.03294
H979	C1208	0.03434
H985	N393	0.02492
H986	N393	0.03821
H987	N394	0.02661
H988	N394	0.03037
H989	N395	0.02850
H990	N395	0.02777
H991	N396	0.02483
H992	N396	0.03753
H993	N397	0.02688
H994	N397	0.02977
H995	N398	0.02900
H996	N398	0.04131
H997	N399	0.02971
H998	N399	0.02809
H999	N400	0.02941
H1000	N400	0.04052
N385	Ni97	0.05074
N386	Ni100	0.04988
N387	Ni97	0.05282
N388	Ni98	0.05049
N389	Ni99	0.05083
N390	Ni98	0.05237
N391	Ni99	0.05325
Ni97	O386	0.06719
Ni97	O388	0.06423
Ni97	O390	0.04606
Ni97	O392	0.04790
Ni98	O387	0.06637
Ni98	O389	0.05339
Ni98	O393	0.06377
Ni98	O399	0.04890
Ni99	O394	0.06696
Ni99	O396	0.05650
Ni99	O398	0.04713
Ni100	O385	0.04780
Ni100	O391	0.05067
O400	H1188	0.04212
C1201	C1211	0.03209
C1201	C1395	0.05211
C1201	H1161	0.03473
C1202	C1212	0.03552
C1203	C1221	0.03419
C1204	C1394	0.05256
C1204	C1398	0.04116
C1205	C1213	0.03290
C1205	C1395	0.04350
C1205	H1176	0.04086
C1206	C1214	0.03606
C1207	C1209	0.03749
C1207	C1219	0.05271
C1207	H1005	0.03052
C1208	C1210	0.03245
C1208	C1220	0.05168
C1209	N403	0.03686
C1209	N411	0.05077
C1210	H1020	0.04018
C1210	N404	0.04122
C1211	H1008	0.04057
C1211	N401	0.04143
C1212	N402	0.04057
C1213	N401	0.05184
C1213	N409	0.04097
C1214	H1010	0.03125
C1214	N402	0.05066
C1215	C1217	0.03808
C1215	H1011	0.02837
C1215	N403	0.05073
C1216	C1218	0.03342
C1216	N404	0.05131
C1216	N412	0.04065
C1217	C1219	0.03732
C1218	C1220	0.04328
C1218	H1013	0.04056
C1219	C1223	0.04012
C1221	O403	0.03888
C1221	O415	0.04740
C1222	O404	0.03858
C1222	O408	0.04885
C1222	C1252	0.03599
C1223	O401	0.03712
C1224	O402	0.03823
C1224	O406	0.04740
C1224	C1268	0.03443
C1225	C1235	0.03663
C1225	H1014	0.03241
C1225	C1419	0.05239
C1226	C1228	0.05398
C1226	C1236	0.03738
C1227	C1245	0.03680
C1228	C1230	0.03852
C1229	C1237	0.03673
C1229	C1419	0.04044
C1230	C1238	0.03918
C1230	H1017	0.04148
C1231	C1233	0.03874
C1231	C1243	0.05056
C1231	H1018	0.03016
C1232	C1244	0.05282
C1233	N407	0.03720
C1233	N415	0.05006
C1234	H1007	0.04015
C1235	N405	0.03970
C1235	N413	0.05140
C1236	H1009	0.04145
C1236	N406	0.03696
C1237	H1021	0.03097
C1237	N405	0.05123
C1238	N406	0.05235
C1238	N414	0.03665
C1239	C1241	0.03833
C1239	H1022	0.02877
C1239	N407	0.04885
C1240	C1242	0.03622
C1240	N408	0.05159
C1240	N416	0.03802
C1241	C1243	0.03740
C1241	H1012	0.03884
C1242	C1244	0.04138
C1242	H1024	0.04129
C1243	C1247	0.03996
C1245	O411	0.03939
C1246	O412	0.03500
C1246	O416	0.04983
C1246	C1468	0.04257
C1247	O405	0.04943
C1247	O409	0.03690
C1248	O410	0.03738
C1248	O414	0.04798
C1248	C1292	0.03595
H1002	C1274	0.03146
H1004	C1398	0.04108
H1015	C1442	0.03294
H1019	C1256	0.03434
H1025	N409	0.02492
H1026	N409	0.03821
H1027	N410	0.02661
H1028	N410	0.03037
H1029	N411	0.02850
H1030	N411	0.02777
H1031	N412	0.02483
H1032	N412	0.03753
H1033	N413	0.02688
H1034	N413	0.02977
H1035	N414	0.02900
H1036	N414	0.04131
H1037	N415	0.02971
H1038	N415	0.02809
H1039	N416	0.02941
H1040	N416	0.04052
N401	Ni101	0.05074
N402	Ni104	0.04988
N403	Ni101	0.05282
N404	Ni102	0.05049
N405	Ni103	0.05083
N406	Ni102	0.05237
N407	Ni103	0.05325
Ni101	O402	0.06719
Ni101	O404	0.06423
Ni101	O406	0.04606
Ni101	O408	0.04790
Ni102	O403	0.06637
Ni102	O405	0.05339
Ni102	O409	0.06377
Ni102	O415	0.04890
Ni103	O410	0.06696
Ni103	O412	0.05650
Ni103	O414	0.04713
Ni104	O401	0.04780
Ni104	O407	0.05067
O416	H1228	0.04212
C1249	C1259	0.03209
C1249	C1443	0.05211
C1249	H1201	0.03473
C1250	C1260	0.03552
C1251	C1269	0.03419
C1252	C1442	0.05256
C1252	C1446	0.04116
C1253	C1261	0.03290
C1253	C1443	0.04350
C1253	H1216	0.04086
C1254	C1262	0.03606
C1255	C1257	0.03749
C1255	C1267	0.05271
C1255	H1045	0.03052
C1256	C1258	0.03245
C1256	C1268	0.05168
C1257	N419	0.03686
C1257	N427	0.05077
C1258	H1060	0.04018
C1258	N420	0.04122
C1259	H1048	0.04057
C1259	N417	0.04143
C1260	N418	0.04057
C1261	N417	0.05184
C1261	N425	0.04097
C1262	H1050	0.03125
C1262	N418	0.05066
C1263	C1265	0.03808
C1263	H1051	0.02837
C1263	N419	0.05073
C1264	C1266	0.03342
C1264	N420	0.05131
C1264	N428	0.04065
C1265	C1267	0.03732
C1266	C1268	0.04328
C1266	H1053	0.04056
C1267	C1271	0.04012
C1269	O419	0.03888
C1269	O431	0.04740
C1270	O420	0.03858
C1270	O424	0.04885
C1270	C1300	0.03599
C1271	O417	0.03712
C1272	O418	0.03823
C1272	O422	0.04740
C1272	C1316	0.03443
C1273	C1283	0.03663
C1273	H1054	0.03241
C1273	C1467	0.05239
C1274	C1276	0.05398
C1274	C1284	0.03738
C1275	C1293	0.03680
C1276	C1278	0.03852
C1277	C1285	0.03673
C1277	C1467	0.04044
C1278	C1286	0.03918
C1278	H1057	0.04148
C1279	C1281	0.03874
C1279	C1291	0.05056
C1279	H1058	0.03016
C1280	C1292	0.05282
C1281	N423	0.03720
C1281	N431	0.05006
C1282	H1047	0.04015
C1283	N421	0.03970
C1283	N429	0.05140
C1284	H1049	0.04145
C1284	N422	0.03696
C1285	H1061	0.03097
C1285	N421	0.05123
C1286	N422	0.05235
C1286	N430	0.03665
C1287	C1289	0.03833
C1287	H1062	0.02877
C1287	N423	0.04885
C1288	C1290	0.03622
C1288	N424	0.05159
C1288	N432	0.03802
C1289	C1291	0.03740
C1289	H1052	0.03884
C1290	C1292	0.04138
C1290	H1064	0.04129
C1291	C1295	0.03996
C1293	O427	0.03939
C1294	O428	0.03500
C1294	O432	0.04983
C1294	C1516	0.04257
C1295	O421	0.04943
C1295	O425	0.03690
C1296	O426	0.03738
C1296	O430	0.04798
C1296	C1340	0.03595
H1042	C1322	0.03146
H1044	C1446	0.04108
H1055	C1490	0.03294
H1059	C1304	0.03434
H1065	N425	0.02492
H1066	N425	0.03821
H1067	N426	0.02661
H1068	N426	0.03037
H1069	N427	0.02850
H1070	N427	0.02777
H1071	N428	0.02483
H1072	N428	0.03753
H1073	N429	0.02688
H1074	N429	0.02977
H1075	N430	0.02900
H1076	N430	0.04131
H1077	N431	0.02971
H1078	N431	0.02809
H1079	N432	0.02941
H1080	N432	0.04052
N417	Ni105	0.05074
N418	Ni108	0.04988
N419	Ni105	0.05282
N420	Ni106	0.05049
N421	Ni107	0.05083
N422	Ni106	0.05237
N423	Ni107	0.05325
Ni105	O418	0.06719
Ni105	O420	0.06423
Ni105	O422	0.04606
Ni105	O424	0.04790
Ni106	O419	0.06637
Ni106	O421	0.05339
Ni106	O425	0.06377
Ni106	O431	0.04890
Ni107	O426	0.06696
Ni107	O428	0.05650
Ni107	O430	0.04713
Ni108	O417	0.04780
Ni108	O423	0.05067
O432	H1268	0.04212
C1297	C1307	0.03209
C1297	C1491	0.05211
C1297	H1241	0.03473
C1298	C1308	0.03552
C1299	C1317	0.03419
C1300	C1490	0.05256
C1300	C1494	0.04116
C1301	C1309	0.03290
C1301	C1491	0.04350
C1301	H1256	0.04086
C1302	C1310	0.03606
C1303	C1305	0.03749
C1303	C1315	0.05271
C1303	H1085	0.03052
C1304	C1306	0.03245
C1304	C1316	0.05168
C1305	N435	0.03686
C1305	N443	0.05077
C1306	H1100	0.04018
C1306	N436	0.04122
C1307	H1088	0.04057
C1307	N433	0.04143
C1308	N434	0.04057
C1309	N433	0.05184
C1309	N441	0.04097
C1310	H1090	0.03125
C1310	N434	0.05066
C1311	C1313	0.03808
C1311	H1091	0.02837
C1311	N435	0.05073
C1312	C1314	0.03342
C1312	N436	0.05131
C1312	N444	0.04065
C1313	C1315	0.03732
C1314	C1316	0.04328
C1314	H1093	0.04056
C1315	C1319	0.04012
C1317	O435	0.03888
C1317	O447	0.04740
C1318	O436	0.03858
C1318	O440	0.04885
C1319	O433	0.03712
C1320	O434	0.03823
C1320	O438	0.04740
C1321	C1331	0.03663
C1321	H1094	0.03241
C1321	C1515	0.05239
C1322	C1324	0.05398
C1322	C1332	0.03738
C1323	C1341	0.03680
C1324	C1326	0.03852
C1325	C1333	0.03673
C1325	C1515	0.04044
C1326	C1334	0.03918
C1326	H1097	0.04148
C1327	C1329	0.03874
C1327	C1339	0.05056
C1327	H1098	0.03016
C1328	C1340	0.05282
C1329	N439	0.03720
C1329	N447	0.05006
C1330	H1087	0.04015
C1331	N437	0.03970
C1331	N445	0.05140
C1332	H1089	0.04145
C1332	N438	0.03696
C1333	H1101	0.03097
C1333	N437	0.05123
C1334	N438	0.05235
C1334	N446	0.03665
C1335	C1337	0.03833
C1335	H1102	0.02877
C1335	N439	0.04885
C1336	C1338	0.03622
C1336	N440	0.05159
C1336	N448	0.03802
C1337	C1339	0.03740
C1337	H1092	0.03884
C1338	C1340	0.04138
C1338	H1104	0.04129
C1339	C1343	0.03996
C1341	O443	0.03939
C1342	O444	0.03500
C1342	O448	0.04983
C1343	O437	0.04943
C1343	O441	0.03690
C1344	O442	0.03738
C1344	O446	0.04798
H1084	C1494	0.04108
H1105	N441	0.02492
H1106	N441	0.03821
H1107	N442	0.02661
H1108	N442	0.03037
H1109	N443	0.02850
H1110	N443	0.02777
H1111	N444	0.02483
H1112	N444	0.03753
H1113	N445	0.02688
H1114	N445	0.02977
H1115	N446	0.02900
H1116	N446	0.04131
H1117	N447	0.02971
H1118	N447	0.02809
H1119	N448	0.02941
H1120	N448	0.04052
N433	Ni109	0.05074
N434	Ni112	0.04988
N435	Ni109	0.05282
N436	Ni110	0.05049
N437	Ni111	0.05083
N438	Ni110	0.05237
N439	Ni111	0.05325
Ni109	O434	0.06719
Ni109	O436	0.06423
Ni109	O438	0.04606
Ni109	O440	0.04790
Ni110	O435	0.06637
Ni110	O437	0.05339
Ni110	O441	0.06377
Ni110	O447	0.04890
Ni111	O442	0.06696
Ni111	O444	0.05650
Ni111	O446	0.04713
Ni112	O433	0.04780
Ni112	O439	0.05067
C1345	C1355	0.03209
C1346	C1356	0.03552
C1347	C1365	0.03419
C1349	C1357	0.03290
C1350	C1358	0.03606
C1351	C1353	0.03749
C1351	C1363	0.05271
C1351	H1125	0.03052
C1352	C1354	0.03245
C1352	C1364	0.05168
C1353	N451	0.03686
C1353	N459	0.05077
C1354	H1140	0.04018
C1354	N452	0.04122
C1355	H1128	0.04057
C1355	N449	0.04143
C1356	N450	0.04057
C1357	N449	0.05184
C1357	N457	0.04097
C1358	H1130	0.03125
C1358	N450	0.05066
C1359	C1361	0.03808
C1359	H1131	0.02837
C1359	N451	0.05073
C1360	C1362	0.03342
C1360	N452	0.05131
C1360	N460	0.04065
C1361	C1363	0.03732
C1362	C1364	0.04328
C1362	H1133	0.04056
C1363	C1367	0.04012
C1365	O451	0.03888
C1365	O463	0.04740
C1366	O452	0.03858
C1366	O456	0.04885
C1366	C1396	0.03599
C1367	O449	0.03712
C1368	O450	0.03823
C1368	O454	0.04740
C1368	C1412	0.03443
C1369	C1379	0.03663
C1369	H1134	0.03241
C1370	C1372	0.05398
C1370	C1380	0.03738
C1371	C1389	0.03680
C1372	C1374	0.03852
C1373	C1381	0.03673
C1374	C1382	0.03918
C1374	H1137	0.04148
C1375	C1377	0.03874
C1375	C1387	0.05056
C1375	H1138	0.03016
C1376	C1388	0.05282
C1377	N455	0.03720
C1377	N463	0.05006
C1378	H1127	0.04015
C1379	N453	0.03970
C1379	N461	0.05140
C1380	H1129	0.04145
C1380	N454	0.03696
C1381	H1141	0.03097
C1381	N453	0.05123
C1382	N454	0.05235
C1382	N462	0.03665
C1383	C1385	0.03833
C1383	H1142	0.02877
C1383	N455	0.04885
C1384	C1386	0.03622
C1384	N456	0.05159
C1384	N464	0.03802
C1385	C1387	0.03740
C1385	H1132	0.03884
C1386	C1388	0.04138
C1386	H1144	0.04129
C1387	C1391	0.03996
C1389	O459	0.03939
C1390	O460	0.03500
C1390	O464	0.04983
C1391	O453	0.04943
C1391	O457	0.03690
C1392	O458	0.03738
C1392	O462	0.04798
C1392	C1436	0.03595
H1122	C1418	0.03146
H1139	C1400	0.03434
H1145	N457	0.02492
H1146	N457	0.03821
H1147	N458	0.02661
H1148	N458	0.03037
H1149	N459	0.02850
H1150	N459	0.02777
H1151	N460	0.02483
H1152	N460	0.03753
H1153	N461	0.02688
H1154	N461	0.02977
H1155	N462	0.02900
H1156	N462	0.04131
H1157	N463	0.02971
H1158	N463	0.02809
H1159	N464	0.02941
H1160	N464	0.04052
N449	Ni113	0.05074
N450	Ni116	0.04988
N451	Ni113	0.05282
N452	Ni114	0.05049
N453	Ni115	0.05083
N454	Ni114	0.05237
N455	Ni115	0.05325
Ni113	O450	0.06719
Ni113	O452	0.06423
Ni113	O454	0.04606
Ni113	O456	0.04790
Ni114	O451	0.06637
Ni114	O453	0.05339
Ni114	O457	0.06377
Ni114	O463	0.04890
Ni115	O458	0.06696
Ni115	O460	0.05650
Ni115	O462	0.04713
Ni116	O449	0.04780
Ni116	O455	0.05067
C1393	C1403	0.03209
C1394	C1404	0.03552
C1395	C1413	0.03419
C1397	C1405	0.03290
C1398	C1406	0.03606
C1399	C1401	0.03749
C1399	C1411	0.05271
C1399	H1165	0.03052
C1400	C1402	0.03245
C1400	C1412	0.05168
C1401	N467	0.03686
C1401	N475	0.05077
C1402	H1180	0.04018
C1402	N468	0.04122
C1403	H1168	0.04057
C1403	N465	0.04143
C1404	N466	0.04057
C1405	N465	0.05184
C1405	N473	0.04097
C1406	H1170	0.03125
C1406	N466	0.05066
C1407	C1409	0.03808
C1407	H1171	0.02837
C1407	N467	0.05073
C1408	C1410	0.03342
C1408	N468	0.05131
C1408	N476	0.04065
C1409	C1411	0.03732
C1410	C1412	0.04328
C1410	H1173	0.04056
C1411	C1415	0.04012
C1413	O467	0.03888
C1413	O479	0.04740
C1414	O468	0.03858
C1414	O472	0.04885
C1414	C1444	0.03599
C1415	O465	0.03712
C1416	O466	0.03823
C1416	O470	0.04740
C1416	C1460	0.03443
C1417	C1427	0.03663
C1417	H1174	0.03241
C1418	C1420	0.05398
C1418	C1428	0.03738
C1419	C1437	0.03680
C1420	C1422	0.03852
C1421	C1429	0.03673
C1422	C1430	0.03918
C1422	H1177	0.04148
C1423	C1425	0.03874
C1423	C1435	0.05056
C1423	H1178	0.03016
C1424	C1436	0.05282
C1425	N471	0.03720
C1425	N479	0.05006
C1426	H1167	0.04015
C1427	N469	0.03970
C1427	N477	0.05140
C1428	H1169	0.04145
C1428	N470	0.03696
C1429	H1181	0.03097
C1429	N469	0.05123
C1430	N470	0.05235
C1430	N478	0.03665
C1431	C1433	0.03833
C1431	H1182	0.02877
C1431	N471	0.04885
C1432	C1434	0.03622
C1432	N472	0.05159
C1432	N480	0.03802
C1433	C1435	0.03740
C1433	H1172	0.03884
C1434	C1436	0.04138
C1434	H1184	0.04129
C1435	C1439	0.03996
C1437	O475	0.03939
C1438	O476	0.03500
C1438	O480	0.04983
C1439	O469	0.04943
C1439	O473	0.03690
C1440	O474	0.03738
C1440	O478	0.04798
C1440	C1484	0.03595
H1162	C1466	0.03146
H1179	C1448	0.03434
H1185	N473	0.02492
H1186	N473	0.03821
H1187	N474	0.02661
H1188	N474	0.03037
H1189	N475	0.02850
H1190	N475	0.02777
H1191	N476	0.02483
H1192	N476	0.03753
H1193	N477	0.02688
H1194	N477	0.02977
H1195	N478	0.02900
H1196	N478	0.04131
H1197	N479	0.02971
H1198	N479	0.02809
H1199	N480	0.02941
H1200	N480	0.04052
N465	Ni117	0.05074
N466	Ni120	0.04988
N467	Ni117	0.05282
N468	Ni118	0.05049
N469	Ni119	0.05083
N470	Ni118	0.05237
N471	Ni119	0.05325
Ni117	O466	0.06719
Ni117	O468	0.06423
Ni117	O470	0.04606
Ni117	O472	0.04790
Ni118	O467	0.06637
Ni118	O469	0.05339
Ni118	O473	0.06377
Ni118	O479	0.04890
Ni119	O474	0.06696
Ni119	O476	0.05650
Ni119	O478	0.04713
Ni120	O465	0.04780
Ni120	O471	0.05067
C1441	C1451	0.03209
C1442	C1452	0.03552
C1443	C1461	0.03419
C1445	C1453	0.03290
C1446	C1454	0.03606
C1447	C1449	0.03749
C1447	C1459	0.05271
C1447	H1205	0.03052
C1448	C1450	0.03245
C1448	C1460	0.05168
C1449	N483	0.03686
C1449	N491	0.05077
C1450	H1220	0.04018
C1450	N484	0.04122
C1451	H1208	0.04057
C1451	N481	0.04143
C1452	N482	0.04057
C1453	N481	0.05184
C1453	N489	0.04097
C1454	H1210	0.03125
C1454	N482	0.05066
C1455	C1457	0.03808
C1455	H1211	0.02837
C1455	N483	0.05073
C1456	C1458	0.03342
C1456	N484	0.05131
C1456	N492	0.04065
C1457	C1459	0.03732
C1458	C1460	0.04328
C1458	H1213	0.04056
C1459	C1463	0.04012
C1461	O483	0.03888
C1461	O495	0.04740
C1462	O484	0.03858
C1462	O488	0.04885
C1462	C1492	0.03599
C1463	O481	0.03712
C1464	O482	0.03823
C1464	O486	0.04740
C1464	C1508	0.03443
C1465	C1475	0.03663
C1465	H1214	0.03241
C1466	C1468	0.05398
C1466	C1476	0.03738
C1467	C1485	0.03680
C1468	C1470	0.03852
C1469	C1477	0.03673
C1470	C1478	0.03918
C1470	H1217	0.04148
C1471	C1473	0.03874
C1471	C1483	0.05056
C1471	H1218	0.03016
C1472	C1484	0.05282
C1473	N487	0.03720
C1473	N495	0.05006
C1474	H1207	0.04015
C1475	N485	0.03970
C1475	N493	0.05140
C1476	H1209	0.04145
C1476	N486	0.03696
C1477	H1221	0.03097
C1477	N485	0.05123
C1478	N486	0.05235
C1478	N494	0.03665
C1479	C1481	0.03833
C1479	H1222	0.02877
C1479	N487	0.04885
C1480	C1482	0.03622
C1480	N488	0.05159
C1480	N496	0.03802
C1481	C1483	0.03740
C1481	H1212	0.03884
C1482	C1484	0.04138
C1482	H1224	0.04129
C1483	C1487	0.03996
C1485	O491	0.03939
C1486	O492	0.03500
C1486	O496	0.04983
C1487	O485	0.04943
C1487	O489	0.03690
C1488	O490	0.03738
C1488	O494	0.04798
C1488	C1532	0.03595
H1202	C1514	0.03146
H1219	C1496	0.03434
H1225	N489	0.02492
H1226	N489	0.03821
H1227	N490	0.02661
H1228	N490	0.03037
H1229	N491	0.02850
H1230	N491	0.02777
H1231	N492	0.02483
H1232	N492	0.03753
H1233	N493	0.02688
H1234	N493	0.02977
H1235	N494	0.02900
H1236	N494	0.04131
H1237	N495	0.02971
H1238	N495	0.02809
H1239	N496	0.02941
H1240	N496	0.04052
N481	Ni121	0.05074
N482	Ni124	0.04988
N483	Ni121	0.05282
N484	Ni122	0.05049
N485	Ni123	0.05083
N486	Ni122	0.05237
N487	Ni123	0.05325
Ni121	O482	0.06719
Ni121	O484	0.06423
Ni121	O486	0.04606
Ni121	O488	0.04790
Ni122	O483	0.06637
Ni122	O485	0.05339
Ni122	O489	0.06377
Ni122	O495	0.04890
Ni123	O490	0.06696
Ni123	O492	0.05650
Ni123	O494	0.04713
Ni124	O481	0.04780
Ni124	O487	0.05067
C1489	C1499	0.03209
C1490	C1500	0.03552
C1491	C1509	0.03419
C1493	C1501	0.03290
C1494	C1502	0.03606
C1495	C1497	0.03749
C1495	C1507	0.05271
C1495	H1245	0.03052
C1496	C1498	0.03245
C1496	C1508	0.05168
C1497	N499	0.03686
C1497	N507	0.05077
C1498	H1260	0.04018
C1498	N500	0.04122
C1499	H1248	0.04057
C1499	N497	0.04143
C1500	N498	0.04057
C1501	N497	0.05184
C1501	N505	0.04097
C1502	H1250	0.03125
C1502	N498	0.05066
C1503	C1505	0.03808
C1503	H1251	0.02837
C1503	N499	0.05073
C1504	C1506	0.03342
C1504	N500	0.05131
C1504	N508	0.04065
C1505	C1507	0.03732
C1506	C1508	0.04328
C1506	H1253	0.04056
C1507	C1511	0.04012
C1509	O499	0.03888
C1509	O511	0.04740
C1510	O500	0.03858
C1510	O504	0.04885
C1511	O497	0.03712
C1512	O498	0.03823
C1512	O502	0.04740
C1513	C1523	0.03663
C1513	H1254	0.03241
C1514	C1516	0.05398
C1514	C1524	0.03738
C1515	C1533	0.03680
C1516	C1518	0.03852
C1517	C1525	0.03673
C1518	C1526	0.03918
C1518	H1257	0.04148
C1519	C1521	0.03874
C1519	C1531	0.05056
C1519	H1258	0.03016
C1520	C1532	0.05282
C1521	N503	0.03720
C1521	N511	0.05006
C1522	H1247	0.04015
C1523	N501	0.03970
C1523	N509	0.05140
C1524	H1249	0.04145
C1524	N502	0.03696
C1525	H1261	0.03097
C1525	N501	0.05123
C1526	N502	0.05235
C1526	N510	0.03665
C1527	C1529	0.03833
C1527	H1262	0.02877
C1527	N503	0.04885
C1528	C1530	0.03622
C1528	N504	0.05159
C1528	N512	0.03802
C1529	C1531	0.03740
C1529	H1252	0.03884
C1530	C1532	0.04138
C1530	H1264	0.04129
C1531	C1535	0.03996
C1533	O507	0.03939
C1534	O508	0.03500
C1534	O512	0.04983
C1535	O501	0.04943
C1535	O505	0.03690
C1536	O506	0.03738
C1536	O510	0.04798
H1265	N505	0.02492
H1266	N505	0.03821
H1267	N506	0.02661
H1268	N506	0.03037
H1269	N507	0.02850
H1270	N507	0.02777
H1271	N508	0.02483
H1272	N508	0.03753
H1273	N509	0.02688
H1274	N509	0.02977
H1275	N510	0.02900
H1276	N510	0.04131
H1277	N511	0.02971
H1278	N511	0.02809
H1279	N512	0.02941
H1280	N512	0.04052
N497	Ni125	0.05074
N498	Ni128	0.04988
N499	Ni125	0.05282
N500	Ni126	0.05049
N501	Ni127	0.05083
N502	Ni126	0.05237
N503	Ni127	0.05325
Ni125	O498	0.06719
Ni125	O500	0.06423
Ni125	O502	0.04606
Ni125	O504	0.04790
Ni126	O499	0.06637
Ni126	O501	0.05339
Ni126	O505	0.06377
Ni126	O511	0.04890
Ni127	O506	0.06696
Ni127	O508	0.05650
Ni127	O510	0.04713
Ni128	O497	0.04780
Ni128	O503	0.05067
