data_NiPyC2_mNH2NiPyC2_mNH2_comp1_PM
_symmetry_space_group_name_H-M	'P1'
_cell_length_a	25.011234
_cell_length_b	50.093648
_cell_length_c	41.107240
_cell_angle_alpha	90.000000
_cell_angle_beta	91.268973
_cell_angle_gamma	90.000000
_symmetry_Int_Tables_number 1

loop_
_symmetry_equiv_pos_as_xyz
'x,y,z'

loop_
_atom_site_label
_atom_site_type_symbol
_atom_site_fract_x
_atom_site_fract_y
_atom_site_fract_z
C1	C	0.140527	0.244398	0.134291
C2	C	0.013270	0.003334	0.009357
C3	C	0.229052	0.236018	0.155670
C4	C	0.101023	0.010796	0.033029
C5	C	0.108249	0.132665	0.133389
C6	C	0.124193	0.153910	0.154389
C7	C	0.121592	0.223797	0.155039
C8	C	0.493850	0.023759	0.029147
C9	C	0.207177	0.216231	0.175475
C10	C	0.078788	0.032520	0.050440
C11	C	0.043297	0.152359	0.181130
C12	C	0.024879	0.131474	0.161176
C13	C	0.056660	0.120960	0.136929
C14	C	0.088673	0.224523	0.241310
C15	C	0.037773	0.098715	0.116470
C16	C	0.157982	0.149636	0.241218
C17	C	0.441159	0.006231	0.137219
C18	C	0.323172	0.247429	0.011117
C19	C	0.483516	0.121120	0.008059
C20	C	0.002511	0.099948	0.027331
C21	C	0.420536	0.095003	0.051995
C22	C	0.399146	0.117433	0.034878
C23	C	0.431396	0.130433	0.011326
C24	C	0.462042	0.027693	0.116739
H1	H	0.163350	0.163189	0.151993
H2	H	0.043106	0.092470	0.025580
H3	H	0.079329	0.218528	0.154788
H4	H	0.231739	0.204901	0.192622
H5	H	0.104442	0.045080	0.065747
H6	H	0.018943	0.160592	0.200271
H7	H	0.365766	0.001335	0.111196
H8	H	0.484839	0.242400	0.244061
H9	H	0.271619	0.240222	0.157688
H10	H	0.390966	0.247691	0.044352
H11	H	0.451696	0.028981	0.029386
H12	H	0.395278	0.083447	0.067997
H13	H	0.485760	0.123048	0.165857
H14	H	0.172669	0.014198	0.057485
H15	H	0.180739	0.130108	0.110914
H16	H	0.130704	0.107621	0.097831
H17	H	0.303163	0.121019	0.233734
H18	H	0.250634	0.142709	0.221379
H19	H	0.034089	0.021876	0.161710
H20	H	0.204703	0.011171	0.225694
H21	H	0.329804	0.115562	0.060116
H22	H	0.334854	0.141798	0.029885
N1	N	0.154069	0.210871	0.175907
N2	N	0.026624	0.037914	0.049563
N3	N	0.092730	0.163015	0.177675
N4	N	0.471302	0.087452	0.049269
N5	N	0.152135	0.004515	0.038852
N6	N	0.141875	0.124091	0.111137
N7	N	0.263965	0.126434	0.234458
N8	N	0.019064	0.005839	0.174077
N9	N	0.241674	0.003049	0.229279
N10	N	0.350052	0.125538	0.042305
Ni1	Ni	0.123593	0.187457	0.210835
Ni2	Ni	0.000082	0.062694	0.082980
O1	O	0.066374	0.086632	0.095375
O2	O	0.186836	0.162435	0.220590
O3	O	0.060984	0.213155	0.218397
O4	O	0.110670	0.158917	0.244755
O5	O	0.011659	0.035014	0.119203
O6	O	0.136843	0.215649	0.245277
O7	O	0.434298	0.040183	0.095060
O8	O	0.489517	0.090083	0.118571
C25	C	0.196249	0.001053	0.384972
C26	C	0.067224	0.246315	0.260833
C27	C	0.230654	0.116076	0.255903
C28	C	0.248496	0.094827	0.276473
C29	C	0.165767	0.092166	0.300323
C30	C	0.145408	0.113287	0.281534
C31	C	0.177667	0.126251	0.259387
C32	C	0.217413	0.023461	0.366036
C33	C	0.391593	0.244372	0.380997
C34	C	0.273023	0.010131	0.254384
C35	C	0.471990	0.245856	0.414114
C36	C	0.352444	0.006523	0.288078
C37	C	0.359027	0.127083	0.387996
C38	C	0.378059	0.148664	0.407759
C39	C	0.373964	0.223205	0.400270
C40	C	0.255653	0.030800	0.275294
C41	C	0.451597	0.223981	0.432245
C42	C	0.331877	0.026520	0.308108
C43	C	0.291727	0.158677	0.423183
C44	C	0.269906	0.138035	0.404185
C45	C	0.302683	0.121926	0.385639
C46	C	0.342788	0.225434	0.491053
C47	C	0.281327	0.099758	0.365847
C48	C	0.410241	0.152506	0.491482
H23	H	0.010455	0.130514	0.491131
H24	H	0.217850	0.040913	0.270135
H25	H	0.141263	0.081661	0.317640
H26	H	0.227175	0.134177	0.405254
H27	H	0.104763	0.120101	0.285189
H28	H	0.420710	0.152966	0.409875
H29	H	0.288950	0.087012	0.274395
H30	H	0.335672	0.213522	0.395696
H31	H	0.475289	0.215628	0.452371
H32	H	0.354031	0.033656	0.329387
H33	H	0.266734	0.171208	0.438084
H34	H	0.065184	0.006761	0.367445
H35	H	0.121294	0.023592	0.352910
H36	H	0.166518	0.237969	0.276969
H37	H	0.039329	0.246240	0.442685
H38	H	0.253953	0.237290	0.465351
H39	H	0.434582	0.111178	0.376073
H40	H	0.376831	0.095277	0.361006
N11	N	0.217375	0.084044	0.298993
N12	N	0.403668	0.213507	0.425693
N13	N	0.283593	0.038013	0.301899
N14	N	0.345052	0.163677	0.425161
N15	N	0.105868	0.007778	0.365517
N16	N	0.393417	0.111153	0.373445
Ni3	Ni	0.249772	0.061237	0.334958
Ni4	Ni	0.375262	0.188839	0.458766
O9	O	0.188828	0.035320	0.343181
O10	O	0.233893	0.090742	0.368555
O11	O	0.310092	0.087753	0.344146
O12	O	0.438163	0.165002	0.470482
O13	O	0.313484	0.213981	0.468733
O14	O	0.361262	0.160502	0.493506
O15	O	0.264137	0.033043	0.370594
O16	O	0.390261	0.216111	0.494443
C49	C	0.140527	0.244398	0.634291
C50	C	0.013270	0.003334	0.509357
C51	C	0.229052	0.236018	0.655670
C52	C	0.101023	0.010796	0.533029
C53	C	0.108249	0.132665	0.633389
C54	C	0.124193	0.153910	0.654389
C55	C	0.121592	0.223797	0.655039
C56	C	0.493850	0.023759	0.529147
C57	C	0.207177	0.216231	0.675474
C58	C	0.078788	0.032520	0.550440
C59	C	0.043297	0.152359	0.681130
C60	C	0.024879	0.131474	0.661176
C61	C	0.056660	0.120960	0.636929
C62	C	0.088673	0.224523	0.741310
C63	C	0.037773	0.098715	0.616470
C64	C	0.157982	0.149636	0.741218
C65	C	0.441159	0.006231	0.637219
C66	C	0.323172	0.247429	0.511117
C67	C	0.483516	0.121120	0.508059
C68	C	0.002511	0.099948	0.527331
C69	C	0.420536	0.095003	0.551995
C70	C	0.399146	0.117433	0.534878
C71	C	0.431396	0.130433	0.511326
C72	C	0.462042	0.027693	0.616739
H41	H	0.163350	0.163189	0.651992
H42	H	0.043106	0.092470	0.525580
H43	H	0.079329	0.218528	0.654788
H44	H	0.231739	0.204901	0.692622
H45	H	0.104442	0.045080	0.565747
H46	H	0.018943	0.160592	0.700271
H47	H	0.365766	0.001335	0.611196
H48	H	0.484839	0.242400	0.744061
H49	H	0.271619	0.240222	0.657687
H50	H	0.390966	0.247691	0.544352
H51	H	0.451696	0.028981	0.529386
H52	H	0.395278	0.083447	0.567997
H53	H	0.485760	0.123048	0.665857
H54	H	0.172669	0.014198	0.557485
H55	H	0.180739	0.130108	0.610914
H56	H	0.130704	0.107621	0.597831
H57	H	0.303163	0.121019	0.733734
H58	H	0.250634	0.142709	0.721379
H59	H	0.034089	0.021876	0.661710
H60	H	0.204703	0.011171	0.725695
H61	H	0.329804	0.115562	0.560116
H62	H	0.334854	0.141798	0.529885
N17	N	0.154069	0.210871	0.675907
N18	N	0.026624	0.037914	0.549562
N19	N	0.092730	0.163015	0.677675
N20	N	0.471302	0.087452	0.549269
N21	N	0.152135	0.004515	0.538852
N22	N	0.141875	0.124091	0.611137
N23	N	0.263965	0.126434	0.734458
N24	N	0.019064	0.005839	0.674077
N25	N	0.241674	0.003049	0.729279
N26	N	0.350052	0.125538	0.542305
Ni5	Ni	0.123593	0.187457	0.710835
Ni6	Ni	0.000082	0.062694	0.582980
O17	O	0.066374	0.086632	0.595375
O18	O	0.186836	0.162435	0.720590
O19	O	0.060984	0.213155	0.718398
O20	O	0.110670	0.158917	0.744754
O21	O	0.011659	0.035014	0.619203
O22	O	0.136843	0.215649	0.745277
O23	O	0.434298	0.040183	0.595059
O24	O	0.489517	0.090083	0.618571
C73	C	0.196249	0.001053	0.884972
C74	C	0.067224	0.246315	0.760833
C75	C	0.230654	0.116076	0.755903
C76	C	0.248496	0.094827	0.776473
C77	C	0.165767	0.092166	0.800323
C78	C	0.145408	0.113287	0.781534
C79	C	0.177667	0.126251	0.759387
C80	C	0.217413	0.023461	0.866036
C81	C	0.391593	0.244372	0.880997
C82	C	0.273023	0.010131	0.754384
C83	C	0.471990	0.245856	0.914114
C84	C	0.352444	0.006523	0.788078
C85	C	0.359027	0.127083	0.887996
C86	C	0.378059	0.148664	0.907759
C87	C	0.373964	0.223205	0.900270
C88	C	0.255653	0.030800	0.775294
C89	C	0.451597	0.223981	0.932245
C90	C	0.331877	0.026520	0.808108
C91	C	0.291727	0.158677	0.923183
C92	C	0.269906	0.138035	0.904185
C93	C	0.302683	0.121926	0.885639
C94	C	0.342788	0.225434	0.991053
C95	C	0.281327	0.099758	0.865846
C96	C	0.410241	0.152506	0.991483
H63	H	0.010455	0.130514	0.991131
H64	H	0.217850	0.040913	0.770135
H65	H	0.141263	0.081661	0.817640
H66	H	0.227175	0.134177	0.905254
H67	H	0.104763	0.120101	0.785189
H68	H	0.420710	0.152966	0.909875
H69	H	0.288950	0.087012	0.774395
H70	H	0.335672	0.213522	0.895696
H71	H	0.475289	0.215628	0.952371
H72	H	0.354031	0.033656	0.829387
H73	H	0.266734	0.171208	0.938084
H74	H	0.065184	0.006761	0.867445
H75	H	0.121294	0.023592	0.852910
H76	H	0.166518	0.237969	0.776969
H77	H	0.039329	0.246240	0.942685
H78	H	0.253953	0.237290	0.965351
H79	H	0.434582	0.111178	0.876073
H80	H	0.376831	0.095277	0.861006
N27	N	0.217375	0.084044	0.798993
N28	N	0.403668	0.213507	0.925693
N29	N	0.283593	0.038013	0.801898
N30	N	0.345052	0.163677	0.925161
N31	N	0.105868	0.007778	0.865517
N32	N	0.393417	0.111153	0.873444
Ni7	Ni	0.249772	0.061237	0.834958
Ni8	Ni	0.375262	0.188839	0.958766
O25	O	0.188828	0.035320	0.843181
O26	O	0.233893	0.090742	0.868555
O27	O	0.310092	0.087753	0.844146
O28	O	0.438163	0.165002	0.970482
O29	O	0.313484	0.213981	0.968733
O30	O	0.361262	0.160502	0.993506
O31	O	0.264137	0.033043	0.870594
O32	O	0.390261	0.216111	0.994443
C97	C	0.196249	0.251053	0.134971
C98	C	0.067224	0.496315	0.010833
C99	C	0.230654	0.366076	0.005903
C100	C	0.248496	0.344827	0.026473
C101	C	0.165767	0.342166	0.050323
C102	C	0.145408	0.363287	0.031534
C103	C	0.177667	0.376251	0.009388
C104	C	0.217413	0.273461	0.116037
C105	C	0.391593	0.494372	0.130997
C106	C	0.273023	0.260131	0.004384
C107	C	0.471990	0.495856	0.164114
C108	C	0.352444	0.256523	0.038078
C109	C	0.359027	0.377083	0.137996
C110	C	0.378059	0.398664	0.157759
C111	C	0.373964	0.473205	0.150270
C112	C	0.255653	0.280800	0.025294
C113	C	0.451597	0.473981	0.182245
C114	C	0.331877	0.276520	0.058108
C115	C	0.291727	0.408678	0.173183
C116	C	0.269906	0.388035	0.154186
C117	C	0.302683	0.371926	0.135639
C118	C	0.342788	0.475434	0.241053
C119	C	0.281327	0.349758	0.115847
C120	C	0.410241	0.402506	0.241482
H81	H	0.010455	0.380514	0.241131
H82	H	0.217850	0.290913	0.020136
H83	H	0.141263	0.331661	0.067640
H84	H	0.227175	0.384177	0.155254
H85	H	0.104763	0.370101	0.035189
H86	H	0.420710	0.402966	0.159875
H87	H	0.288950	0.337012	0.024395
H88	H	0.335672	0.463522	0.145696
H89	H	0.475289	0.465628	0.202371
H90	H	0.354031	0.283656	0.079387
H91	H	0.266734	0.421208	0.188084
H92	H	0.065184	0.256761	0.117445
H93	H	0.121294	0.273592	0.102910
H94	H	0.166518	0.487969	0.026969
H95	H	0.039329	0.496240	0.192685
H96	H	0.253953	0.487290	0.215351
H97	H	0.434582	0.361178	0.126073
H98	H	0.376831	0.345276	0.111006
N33	N	0.217375	0.334044	0.048993
N34	N	0.403668	0.463507	0.175693
N35	N	0.283593	0.288013	0.051899
N36	N	0.345052	0.413677	0.175161
N37	N	0.105868	0.257778	0.115517
N38	N	0.393417	0.361153	0.123444
Ni9	Ni	0.249772	0.311237	0.084958
Ni10	Ni	0.375262	0.438839	0.208766
O33	O	0.188828	0.285320	0.093181
O34	O	0.233893	0.340742	0.118555
O35	O	0.310092	0.337753	0.094146
O36	O	0.438163	0.415002	0.220482
O37	O	0.313484	0.463981	0.218733
O38	O	0.361262	0.410502	0.243506
O39	O	0.264137	0.283042	0.120594
O40	O	0.390261	0.466111	0.244443
C121	C	0.140527	0.494398	0.384291
C122	C	0.013270	0.253333	0.259357
C123	C	0.229052	0.486019	0.405670
C124	C	0.101023	0.260796	0.283029
C125	C	0.108249	0.382665	0.383389
C126	C	0.124193	0.403910	0.404389
C127	C	0.121592	0.473797	0.405039
C128	C	0.493850	0.273759	0.279147
C129	C	0.207177	0.466231	0.425474
C130	C	0.078788	0.282520	0.300440
C131	C	0.043297	0.402359	0.431130
C132	C	0.024879	0.381474	0.411176
C133	C	0.056660	0.370960	0.386929
C134	C	0.088673	0.474523	0.491310
C135	C	0.037773	0.348716	0.366470
C136	C	0.157982	0.399636	0.491218
C137	C	0.441159	0.256231	0.387219
C138	C	0.323172	0.497429	0.261117
C139	C	0.483516	0.371120	0.258059
C140	C	0.002511	0.349948	0.277331
C141	C	0.420536	0.345003	0.301995
C142	C	0.399146	0.367433	0.284878
C143	C	0.431396	0.380433	0.261326
C144	C	0.462042	0.277693	0.366739
H99	H	0.163350	0.413189	0.401992
H100	H	0.043106	0.342470	0.275580
H101	H	0.079329	0.468528	0.404788
H102	H	0.231739	0.454901	0.442622
H103	H	0.104442	0.295080	0.315747
H104	H	0.018943	0.410592	0.450271
H105	H	0.365766	0.251335	0.361196
H106	H	0.484839	0.492400	0.494061
H107	H	0.271619	0.490222	0.407687
H108	H	0.390966	0.497691	0.294352
H109	H	0.451696	0.278981	0.279386
H110	H	0.395278	0.333446	0.317997
H111	H	0.485760	0.373048	0.415857
H112	H	0.172669	0.264197	0.307485
H113	H	0.180739	0.380108	0.360914
H114	H	0.130704	0.357621	0.347831
H115	H	0.303163	0.371019	0.483734
H116	H	0.250634	0.392709	0.471379
H117	H	0.034089	0.271876	0.411710
H118	H	0.204703	0.261171	0.475695
H119	H	0.329804	0.365562	0.310116
H120	H	0.334854	0.391798	0.279885
N39	N	0.154069	0.460871	0.425907
N40	N	0.026624	0.287913	0.299563
N41	N	0.092730	0.413015	0.427675
N42	N	0.471302	0.337452	0.299269
N43	N	0.152135	0.254515	0.288852
N44	N	0.141875	0.374091	0.361137
N45	N	0.263965	0.376433	0.484458
N46	N	0.019064	0.255839	0.424077
N47	N	0.241674	0.253049	0.479279
N48	N	0.350052	0.375538	0.292305
Ni11	Ni	0.123593	0.437457	0.460835
Ni12	Ni	0.000082	0.312694	0.332980
O41	O	0.066374	0.336632	0.345375
O42	O	0.186836	0.412435	0.470590
O43	O	0.060984	0.463155	0.468398
O44	O	0.110670	0.408917	0.494754
O45	O	0.011659	0.285015	0.369203
O46	O	0.136843	0.465649	0.495277
O47	O	0.434298	0.290183	0.345060
O48	O	0.489517	0.340083	0.368571
C145	C	0.196249	0.251053	0.634972
C146	C	0.067224	0.496315	0.510833
C147	C	0.230654	0.366076	0.505903
C148	C	0.248496	0.344827	0.526473
C149	C	0.165767	0.342166	0.550323
C150	C	0.145408	0.363287	0.531534
C151	C	0.177667	0.376251	0.509387
C152	C	0.217413	0.273461	0.616036
C153	C	0.391593	0.494372	0.630997
C154	C	0.273023	0.260131	0.504384
C155	C	0.471990	0.495856	0.664114
C156	C	0.352444	0.256523	0.538078
C157	C	0.359027	0.377083	0.637996
C158	C	0.378059	0.398664	0.657759
C159	C	0.373964	0.473205	0.650270
C160	C	0.255653	0.280800	0.525294
C161	C	0.451597	0.473981	0.682245
C162	C	0.331877	0.276520	0.558108
C163	C	0.291727	0.408678	0.673183
C164	C	0.269906	0.388035	0.654185
C165	C	0.302683	0.371926	0.635639
C166	C	0.342788	0.475434	0.741053
C167	C	0.281327	0.349758	0.615846
C168	C	0.410241	0.402506	0.741483
H121	H	0.010455	0.380514	0.741131
H122	H	0.217850	0.290913	0.520135
H123	H	0.141263	0.331661	0.567640
H124	H	0.227175	0.384177	0.655254
H125	H	0.104763	0.370101	0.535189
H126	H	0.420710	0.402966	0.659875
H127	H	0.288950	0.337012	0.524395
H128	H	0.335672	0.463522	0.645696
H129	H	0.475289	0.465628	0.702371
H130	H	0.354031	0.283656	0.579387
H131	H	0.266734	0.421208	0.688084
H132	H	0.065184	0.256761	0.617445
H133	H	0.121294	0.273592	0.602910
H134	H	0.166518	0.487969	0.526969
H135	H	0.039329	0.496240	0.692685
H136	H	0.253953	0.487290	0.715351
H137	H	0.434582	0.361178	0.626073
H138	H	0.376831	0.345276	0.611006
N49	N	0.217375	0.334044	0.548993
N50	N	0.403668	0.463507	0.675693
N51	N	0.283593	0.288013	0.551898
N52	N	0.345052	0.413677	0.675161
N53	N	0.105868	0.257778	0.615517
N54	N	0.393417	0.361153	0.623444
Ni13	Ni	0.249772	0.311237	0.584958
Ni14	Ni	0.375262	0.438839	0.708766
O49	O	0.188828	0.285320	0.593181
O50	O	0.233893	0.340742	0.618555
O51	O	0.310092	0.337753	0.594146
O52	O	0.438163	0.415002	0.720482
O53	O	0.313484	0.463981	0.718733
O54	O	0.361262	0.410502	0.743506
O55	O	0.264137	0.283042	0.620594
O56	O	0.390261	0.466111	0.744443
C169	C	0.140527	0.494398	0.884291
C170	C	0.013270	0.253333	0.759357
C171	C	0.229052	0.486019	0.905670
C172	C	0.101023	0.260796	0.783029
C173	C	0.108249	0.382665	0.883389
C174	C	0.124193	0.403910	0.904389
C175	C	0.121592	0.473797	0.905039
C176	C	0.493850	0.273759	0.779147
C177	C	0.207177	0.466231	0.925474
C178	C	0.078788	0.282520	0.800440
C179	C	0.043297	0.402359	0.931130
C180	C	0.024879	0.381474	0.911176
C181	C	0.056660	0.370960	0.886929
C182	C	0.088673	0.474523	0.991310
C183	C	0.037773	0.348716	0.866470
C184	C	0.157982	0.399636	0.991218
C185	C	0.441159	0.256231	0.887219
C186	C	0.323172	0.497429	0.761117
C187	C	0.483516	0.371120	0.758059
C188	C	0.002511	0.349948	0.777331
C189	C	0.420536	0.345003	0.801995
C190	C	0.399146	0.367433	0.784878
C191	C	0.431396	0.380433	0.761326
C192	C	0.462042	0.277693	0.866739
H139	H	0.163350	0.413189	0.901992
H140	H	0.043106	0.342470	0.775580
H141	H	0.079329	0.468528	0.904788
H142	H	0.231739	0.454901	0.942622
H143	H	0.104442	0.295080	0.815747
H144	H	0.018943	0.410592	0.950271
H145	H	0.365766	0.251335	0.861196
H146	H	0.484839	0.492400	0.994061
H147	H	0.271619	0.490222	0.907687
H148	H	0.390966	0.497691	0.794352
H149	H	0.451696	0.278981	0.779386
H150	H	0.395278	0.333446	0.817997
H151	H	0.485760	0.373048	0.915857
H152	H	0.172669	0.264197	0.807485
H153	H	0.180739	0.380108	0.860914
H154	H	0.130704	0.357621	0.847831
H155	H	0.303163	0.371019	0.983734
H156	H	0.250634	0.392709	0.971379
H157	H	0.034089	0.271876	0.911710
H158	H	0.204703	0.261171	0.975695
H159	H	0.329804	0.365562	0.810116
H160	H	0.334854	0.391798	0.779885
N55	N	0.154069	0.460871	0.925907
N56	N	0.026624	0.287913	0.799562
N57	N	0.092730	0.413015	0.927675
N58	N	0.471302	0.337452	0.799269
N59	N	0.152135	0.254515	0.788852
N60	N	0.141875	0.374091	0.861137
N61	N	0.263965	0.376433	0.984458
N62	N	0.019064	0.255839	0.924077
N63	N	0.241674	0.253049	0.979279
N64	N	0.350052	0.375538	0.792305
Ni15	Ni	0.123593	0.437457	0.960835
Ni16	Ni	0.000082	0.312694	0.832980
O57	O	0.066374	0.336632	0.845375
O58	O	0.186836	0.412435	0.970590
O59	O	0.060984	0.463155	0.968398
O60	O	0.110670	0.408917	0.994754
O61	O	0.011659	0.285015	0.869203
O62	O	0.136843	0.465649	0.995277
O63	O	0.434298	0.290183	0.845059
O64	O	0.489517	0.340083	0.868571
C193	C	0.140527	0.744398	0.134291
C194	C	0.013270	0.503333	0.009357
C195	C	0.229052	0.736019	0.155670
C196	C	0.101023	0.510796	0.033029
C197	C	0.108249	0.632665	0.133389
C198	C	0.124193	0.653910	0.154389
C199	C	0.121592	0.723797	0.155039
C200	C	0.493850	0.523759	0.029147
C201	C	0.207177	0.716231	0.175475
C202	C	0.078788	0.532520	0.050440
C203	C	0.043297	0.652359	0.181130
C204	C	0.024879	0.631474	0.161176
C205	C	0.056660	0.620960	0.136929
C206	C	0.088673	0.724523	0.241310
C207	C	0.037773	0.598715	0.116470
C208	C	0.157982	0.649636	0.241218
C209	C	0.441159	0.506231	0.137219
C210	C	0.323172	0.747429	0.011117
C211	C	0.483516	0.621120	0.008059
C212	C	0.002511	0.599948	0.027331
C213	C	0.420536	0.595003	0.051995
C214	C	0.399146	0.617433	0.034878
C215	C	0.431396	0.630433	0.011326
C216	C	0.462042	0.527693	0.116739
H161	H	0.163350	0.663189	0.151993
H162	H	0.043106	0.592470	0.025580
H163	H	0.079329	0.718528	0.154788
H164	H	0.231739	0.704901	0.192622
H165	H	0.104442	0.545080	0.065747
H166	H	0.018943	0.660592	0.200271
H167	H	0.365766	0.501335	0.111196
H168	H	0.484839	0.742400	0.244061
H169	H	0.271619	0.740222	0.157688
H170	H	0.390966	0.747691	0.044352
H171	H	0.451696	0.528981	0.029386
H172	H	0.395278	0.583446	0.067997
H173	H	0.485760	0.623048	0.165857
H174	H	0.172669	0.514197	0.057485
H175	H	0.180739	0.630108	0.110914
H176	H	0.130704	0.607621	0.097831
H177	H	0.303163	0.621019	0.233734
H178	H	0.250634	0.642709	0.221379
H179	H	0.034089	0.521876	0.161710
H180	H	0.204703	0.511171	0.225694
H181	H	0.329804	0.615562	0.060116
H182	H	0.334854	0.641798	0.029885
N65	N	0.154069	0.710871	0.175907
N66	N	0.026624	0.537914	0.049563
N67	N	0.092730	0.663015	0.177675
N68	N	0.471302	0.587452	0.049269
N69	N	0.152135	0.504515	0.038852
N70	N	0.141875	0.624091	0.111137
N71	N	0.263965	0.626433	0.234458
N72	N	0.019064	0.505839	0.174077
N73	N	0.241674	0.503049	0.229279
N74	N	0.350052	0.625538	0.042305
Ni17	Ni	0.123593	0.687457	0.210835
Ni18	Ni	0.000082	0.562694	0.082980
O65	O	0.066374	0.586632	0.095375
O66	O	0.186836	0.662435	0.220590
O67	O	0.060984	0.713156	0.218397
O68	O	0.110670	0.658917	0.244755
O69	O	0.011659	0.535014	0.119203
O70	O	0.136843	0.715650	0.245277
O71	O	0.434298	0.540184	0.095060
O72	O	0.489517	0.590083	0.118571
C217	C	0.196249	0.501053	0.384972
C218	C	0.067224	0.746315	0.260833
C219	C	0.230654	0.616076	0.255903
C220	C	0.248496	0.594827	0.276473
C221	C	0.165767	0.592167	0.300323
C222	C	0.145408	0.613287	0.281534
C223	C	0.177667	0.626251	0.259387
C224	C	0.217413	0.523461	0.366036
C225	C	0.391593	0.744372	0.380997
C226	C	0.273023	0.510131	0.254384
C227	C	0.471990	0.745856	0.414114
C228	C	0.352444	0.506523	0.288078
C229	C	0.359027	0.627083	0.387996
C230	C	0.378059	0.648664	0.407759
C231	C	0.373964	0.723205	0.400270
C232	C	0.255653	0.530800	0.275294
C233	C	0.451597	0.723981	0.432245
C234	C	0.331877	0.526520	0.308108
C235	C	0.291727	0.658678	0.423183
C236	C	0.269906	0.638035	0.404185
C237	C	0.302683	0.621926	0.385639
C238	C	0.342788	0.725434	0.491053
C239	C	0.281327	0.599758	0.365847
C240	C	0.410241	0.652506	0.491482
H183	H	0.010455	0.630514	0.491131
H184	H	0.217850	0.540913	0.270135
H185	H	0.141263	0.581662	0.317640
H186	H	0.227175	0.634177	0.405254
H187	H	0.104763	0.620101	0.285189
H188	H	0.420710	0.652966	0.409875
H189	H	0.288950	0.587012	0.274395
H190	H	0.335672	0.713522	0.395696
H191	H	0.475289	0.715628	0.452371
H192	H	0.354031	0.533656	0.329387
H193	H	0.266734	0.671208	0.438084
H194	H	0.065184	0.506761	0.367445
H195	H	0.121294	0.523592	0.352910
H196	H	0.166518	0.737969	0.276969
H197	H	0.039329	0.746240	0.442685
H198	H	0.253953	0.737290	0.465351
H199	H	0.434582	0.611178	0.376073
H200	H	0.376831	0.595276	0.361006
N75	N	0.217375	0.584044	0.298993
N76	N	0.403668	0.713507	0.425693
N77	N	0.283593	0.538013	0.301899
N78	N	0.345052	0.663677	0.425161
N79	N	0.105868	0.507778	0.365517
N80	N	0.393417	0.611153	0.373445
Ni19	Ni	0.249772	0.561237	0.334958
Ni20	Ni	0.375262	0.688839	0.458766
O73	O	0.188828	0.535320	0.343181
O74	O	0.233893	0.590742	0.368555
O75	O	0.310092	0.587754	0.344146
O76	O	0.438163	0.665002	0.470482
O77	O	0.313484	0.713981	0.468733
O78	O	0.361262	0.660502	0.493506
O79	O	0.264137	0.533042	0.370594
O80	O	0.390261	0.716111	0.494443
C241	C	0.140527	0.744398	0.634291
C242	C	0.013270	0.503333	0.509357
C243	C	0.229052	0.736019	0.655670
C244	C	0.101023	0.510796	0.533029
C245	C	0.108249	0.632665	0.633389
C246	C	0.124193	0.653910	0.654389
C247	C	0.121592	0.723797	0.655039
C248	C	0.493850	0.523759	0.529147
C249	C	0.207177	0.716231	0.675474
C250	C	0.078788	0.532520	0.550440
C251	C	0.043297	0.652359	0.681130
C252	C	0.024879	0.631474	0.661176
C253	C	0.056660	0.620960	0.636929
C254	C	0.088673	0.724523	0.741310
C255	C	0.037773	0.598715	0.616470
C256	C	0.157982	0.649636	0.741218
C257	C	0.441159	0.506231	0.637219
C258	C	0.323172	0.747429	0.511117
C259	C	0.483516	0.621120	0.508059
C260	C	0.002511	0.599948	0.527331
C261	C	0.420536	0.595003	0.551995
C262	C	0.399146	0.617433	0.534878
C263	C	0.431396	0.630433	0.511326
C264	C	0.462042	0.527693	0.616739
H201	H	0.163350	0.663189	0.651992
H202	H	0.043106	0.592470	0.525580
H203	H	0.079329	0.718528	0.654788
H204	H	0.231739	0.704901	0.692622
H205	H	0.104442	0.545080	0.565747
H206	H	0.018943	0.660592	0.700271
H207	H	0.365766	0.501335	0.611196
H208	H	0.484839	0.742400	0.744061
H209	H	0.271619	0.740222	0.657687
H210	H	0.390966	0.747691	0.544352
H211	H	0.451696	0.528981	0.529386
H212	H	0.395278	0.583446	0.567997
H213	H	0.485760	0.623048	0.665857
H214	H	0.172669	0.514197	0.557485
H215	H	0.180739	0.630108	0.610914
H216	H	0.130704	0.607621	0.597831
H217	H	0.303163	0.621019	0.733734
H218	H	0.250634	0.642709	0.721379
H219	H	0.034089	0.521876	0.661710
H220	H	0.204703	0.511171	0.725695
H221	H	0.329804	0.615562	0.560116
H222	H	0.334854	0.641798	0.529885
N81	N	0.154069	0.710871	0.675907
N82	N	0.026624	0.537914	0.549562
N83	N	0.092730	0.663015	0.677675
N84	N	0.471302	0.587452	0.549269
N85	N	0.152135	0.504515	0.538852
N86	N	0.141875	0.624091	0.611137
N87	N	0.263965	0.626433	0.734458
N88	N	0.019064	0.505839	0.674077
N89	N	0.241674	0.503049	0.729279
N90	N	0.350052	0.625538	0.542305
Ni21	Ni	0.123593	0.687457	0.710835
Ni22	Ni	0.000082	0.562694	0.582980
O81	O	0.066374	0.586632	0.595375
O82	O	0.186836	0.662435	0.720590
O83	O	0.060984	0.713156	0.718398
O84	O	0.110670	0.658917	0.744754
O85	O	0.011659	0.535014	0.619203
O86	O	0.136843	0.715650	0.745277
O87	O	0.434298	0.540184	0.595059
O88	O	0.489517	0.590083	0.618571
C265	C	0.196249	0.501053	0.884972
C266	C	0.067224	0.746315	0.760833
C267	C	0.230654	0.616076	0.755903
C268	C	0.248496	0.594827	0.776473
C269	C	0.165767	0.592167	0.800323
C270	C	0.145408	0.613287	0.781534
C271	C	0.177667	0.626251	0.759387
C272	C	0.217413	0.523461	0.866036
C273	C	0.391593	0.744372	0.880997
C274	C	0.273023	0.510131	0.754384
C275	C	0.471990	0.745856	0.914114
C276	C	0.352444	0.506523	0.788078
C277	C	0.359027	0.627083	0.887996
C278	C	0.378059	0.648664	0.907759
C279	C	0.373964	0.723205	0.900270
C280	C	0.255653	0.530800	0.775294
C281	C	0.451597	0.723981	0.932245
C282	C	0.331877	0.526520	0.808108
C283	C	0.291727	0.658678	0.923183
C284	C	0.269906	0.638035	0.904185
C285	C	0.302683	0.621926	0.885639
C286	C	0.342788	0.725434	0.991053
C287	C	0.281327	0.599758	0.865846
C288	C	0.410241	0.652506	0.991483
H223	H	0.010455	0.630514	0.991131
H224	H	0.217850	0.540913	0.770135
H225	H	0.141263	0.581662	0.817640
H226	H	0.227175	0.634177	0.905254
H227	H	0.104763	0.620101	0.785189
H228	H	0.420710	0.652966	0.909875
H229	H	0.288950	0.587012	0.774395
H230	H	0.335672	0.713522	0.895696
H231	H	0.475289	0.715628	0.952371
H232	H	0.354031	0.533656	0.829387
H233	H	0.266734	0.671208	0.938084
H234	H	0.065184	0.506761	0.867445
H235	H	0.121294	0.523592	0.852910
H236	H	0.166518	0.737969	0.776969
H237	H	0.039329	0.746240	0.942685
H238	H	0.253953	0.737290	0.965351
H239	H	0.434582	0.611178	0.876073
H240	H	0.376831	0.595276	0.861006
N91	N	0.217375	0.584044	0.798993
N92	N	0.403668	0.713507	0.925693
N93	N	0.283593	0.538013	0.801898
N94	N	0.345052	0.663677	0.925161
N95	N	0.105868	0.507778	0.865517
N96	N	0.393417	0.611153	0.873444
Ni23	Ni	0.249772	0.561237	0.834958
Ni24	Ni	0.375262	0.688839	0.958766
O89	O	0.188828	0.535320	0.843181
O90	O	0.233893	0.590742	0.868555
O91	O	0.310092	0.587754	0.844146
O92	O	0.438163	0.665002	0.970482
O93	O	0.313484	0.713981	0.968733
O94	O	0.361262	0.660502	0.993506
O95	O	0.264137	0.533042	0.870594
O96	O	0.390261	0.716111	0.994443
C289	C	0.196249	0.751053	0.134971
C290	C	0.067224	0.996315	0.010833
C291	C	0.230654	0.866076	0.005903
C292	C	0.248496	0.844827	0.026473
C293	C	0.165767	0.842167	0.050323
C294	C	0.145408	0.863287	0.031534
C295	C	0.177667	0.876251	0.009388
C296	C	0.217413	0.773461	0.116037
C297	C	0.391593	0.994372	0.130997
C298	C	0.273023	0.760131	0.004384
C299	C	0.471990	0.995856	0.164114
C300	C	0.352444	0.756523	0.038078
C301	C	0.359027	0.877083	0.137996
C302	C	0.378059	0.898664	0.157759
C303	C	0.373964	0.973205	0.150270
C304	C	0.255653	0.780800	0.025294
C305	C	0.451597	0.973981	0.182245
C306	C	0.331877	0.776520	0.058108
C307	C	0.291727	0.908678	0.173183
C308	C	0.269906	0.888035	0.154186
C309	C	0.302683	0.871926	0.135639
C310	C	0.342788	0.975434	0.241053
C311	C	0.281327	0.849758	0.115847
C312	C	0.410241	0.902506	0.241482
H241	H	0.010455	0.880514	0.241131
H242	H	0.217850	0.790913	0.020136
H243	H	0.141263	0.831662	0.067640
H244	H	0.227175	0.884177	0.155254
H245	H	0.104763	0.870101	0.035189
H246	H	0.420710	0.902966	0.159875
H247	H	0.288950	0.837012	0.024395
H248	H	0.335672	0.963522	0.145696
H249	H	0.475289	0.965628	0.202371
H250	H	0.354031	0.783656	0.079387
H251	H	0.266734	0.921208	0.188084
H252	H	0.065184	0.756761	0.117445
H253	H	0.121294	0.773592	0.102910
H254	H	0.166518	0.987969	0.026969
H255	H	0.039329	0.996240	0.192685
H256	H	0.253953	0.987290	0.215351
H257	H	0.434582	0.861178	0.126073
H258	H	0.376831	0.845276	0.111006
N97	N	0.217375	0.834044	0.048993
N98	N	0.403668	0.963507	0.175693
N99	N	0.283593	0.788013	0.051899
N100	N	0.345052	0.913677	0.175161
N101	N	0.105868	0.757778	0.115517
N102	N	0.393417	0.861153	0.123444
Ni25	Ni	0.249772	0.811237	0.084958
Ni26	Ni	0.375262	0.938839	0.208766
O97	O	0.188828	0.785320	0.093181
O98	O	0.233893	0.840742	0.118555
O99	O	0.310092	0.837754	0.094146
O100	O	0.438163	0.915002	0.220482
O101	O	0.313484	0.963981	0.218733
O102	O	0.361262	0.910502	0.243506
O103	O	0.264137	0.783042	0.120594
O104	O	0.390261	0.966111	0.244443
C313	C	0.140527	0.994398	0.384291
C314	C	0.013270	0.753333	0.259357
C315	C	0.229052	0.986019	0.405670
C316	C	0.101023	0.760796	0.283029
C317	C	0.108249	0.882665	0.383389
C318	C	0.124193	0.903910	0.404389
C319	C	0.121592	0.973797	0.405039
C320	C	0.493850	0.773759	0.279147
C321	C	0.207177	0.966231	0.425474
C322	C	0.078788	0.782520	0.300440
C323	C	0.043297	0.902359	0.431130
C324	C	0.024879	0.881474	0.411176
C325	C	0.056660	0.870960	0.386929
C326	C	0.088673	0.974523	0.491310
C327	C	0.037773	0.848715	0.366470
C328	C	0.157982	0.899636	0.491218
C329	C	0.441159	0.756231	0.387219
C330	C	0.323172	0.997429	0.261117
C331	C	0.483516	0.871120	0.258059
C332	C	0.002511	0.849948	0.277331
C333	C	0.420536	0.845003	0.301995
C334	C	0.399146	0.867433	0.284878
C335	C	0.431396	0.880433	0.261326
C336	C	0.462042	0.777693	0.366739
H259	H	0.163350	0.913189	0.401992
H260	H	0.043106	0.842470	0.275580
H261	H	0.079329	0.968528	0.404788
H262	H	0.231739	0.954901	0.442622
H263	H	0.104442	0.795080	0.315747
H264	H	0.018943	0.910592	0.450271
H265	H	0.365766	0.751335	0.361196
H266	H	0.484839	0.992400	0.494061
H267	H	0.271619	0.990222	0.407687
H268	H	0.390966	0.997691	0.294352
H269	H	0.451696	0.778981	0.279386
H270	H	0.395278	0.833446	0.317997
H271	H	0.485760	0.873048	0.415857
H272	H	0.172669	0.764197	0.307485
H273	H	0.180739	0.880108	0.360914
H274	H	0.130704	0.857621	0.347831
H275	H	0.303163	0.871019	0.483734
H276	H	0.250634	0.892709	0.471379
H277	H	0.034089	0.771876	0.411710
H278	H	0.204703	0.761171	0.475695
H279	H	0.329804	0.865562	0.310116
H280	H	0.334854	0.891798	0.279885
N103	N	0.154069	0.960871	0.425907
N104	N	0.026624	0.787914	0.299563
N105	N	0.092730	0.913015	0.427675
N106	N	0.471302	0.837452	0.299269
N107	N	0.152135	0.754515	0.288852
N108	N	0.141875	0.874091	0.361137
N109	N	0.263965	0.876433	0.484458
N110	N	0.019064	0.755839	0.424077
N111	N	0.241674	0.753049	0.479279
N112	N	0.350052	0.875538	0.292305
Ni27	Ni	0.123593	0.937457	0.460835
Ni28	Ni	0.000082	0.812694	0.332980
O105	O	0.066374	0.836632	0.345375
O106	O	0.186836	0.912435	0.470590
O107	O	0.060984	0.963156	0.468398
O108	O	0.110670	0.908917	0.494754
O109	O	0.011659	0.785014	0.369203
O110	O	0.136843	0.965650	0.495277
O111	O	0.434298	0.790184	0.345060
O112	O	0.489517	0.840083	0.368571
C337	C	0.196249	0.751053	0.634972
C338	C	0.067224	0.996315	0.510833
C339	C	0.230654	0.866076	0.505903
C340	C	0.248496	0.844827	0.526473
C341	C	0.165767	0.842167	0.550323
C342	C	0.145408	0.863287	0.531534
C343	C	0.177667	0.876251	0.509387
C344	C	0.217413	0.773461	0.616036
C345	C	0.391593	0.994372	0.630997
C346	C	0.273023	0.760131	0.504384
C347	C	0.471990	0.995856	0.664114
C348	C	0.352444	0.756523	0.538078
C349	C	0.359027	0.877083	0.637996
C350	C	0.378059	0.898664	0.657759
C351	C	0.373964	0.973205	0.650270
C352	C	0.255653	0.780800	0.525294
C353	C	0.451597	0.973981	0.682245
C354	C	0.331877	0.776520	0.558108
C355	C	0.291727	0.908678	0.673183
C356	C	0.269906	0.888035	0.654185
C357	C	0.302683	0.871926	0.635639
C358	C	0.342788	0.975434	0.741053
C359	C	0.281327	0.849758	0.615846
C360	C	0.410241	0.902506	0.741483
H281	H	0.010455	0.880514	0.741131
H282	H	0.217850	0.790913	0.520135
H283	H	0.141263	0.831662	0.567640
H284	H	0.227175	0.884177	0.655254
H285	H	0.104763	0.870101	0.535189
H286	H	0.420710	0.902966	0.659875
H287	H	0.288950	0.837012	0.524395
H288	H	0.335672	0.963522	0.645696
H289	H	0.475289	0.965628	0.702371
H290	H	0.354031	0.783656	0.579387
H291	H	0.266734	0.921208	0.688084
H292	H	0.065184	0.756761	0.617445
H293	H	0.121294	0.773592	0.602910
H294	H	0.166518	0.987969	0.526969
H295	H	0.039329	0.996240	0.692685
H296	H	0.253953	0.987290	0.715351
H297	H	0.434582	0.861178	0.626073
H298	H	0.376831	0.845276	0.611006
N113	N	0.217375	0.834044	0.548993
N114	N	0.403668	0.963507	0.675693
N115	N	0.283593	0.788013	0.551898
N116	N	0.345052	0.913677	0.675161
N117	N	0.105868	0.757778	0.615517
N118	N	0.393417	0.861153	0.623444
Ni29	Ni	0.249772	0.811237	0.584958
Ni30	Ni	0.375262	0.938839	0.708766
O113	O	0.188828	0.785320	0.593181
O114	O	0.233893	0.840742	0.618555
O115	O	0.310092	0.837754	0.594146
O116	O	0.438163	0.915002	0.720482
O117	O	0.313484	0.963981	0.718733
O118	O	0.361262	0.910502	0.743506
O119	O	0.264137	0.783042	0.620594
O120	O	0.390261	0.966111	0.744443
C361	C	0.140527	0.994398	0.884291
C362	C	0.013270	0.753333	0.759357
C363	C	0.229052	0.986019	0.905670
C364	C	0.101023	0.760796	0.783029
C365	C	0.108249	0.882665	0.883389
C366	C	0.124193	0.903910	0.904389
C367	C	0.121592	0.973797	0.905039
C368	C	0.493850	0.773759	0.779147
C369	C	0.207177	0.966231	0.925474
C370	C	0.078788	0.782520	0.800440
C371	C	0.043297	0.902359	0.931130
C372	C	0.024879	0.881474	0.911176
C373	C	0.056660	0.870960	0.886929
C374	C	0.088673	0.974523	0.991310
C375	C	0.037773	0.848715	0.866470
C376	C	0.157982	0.899636	0.991218
C377	C	0.441159	0.756231	0.887219
C378	C	0.323172	0.997429	0.761117
C379	C	0.483516	0.871120	0.758059
C380	C	0.002511	0.849948	0.777331
C381	C	0.420536	0.845003	0.801995
C382	C	0.399146	0.867433	0.784878
C383	C	0.431396	0.880433	0.761326
C384	C	0.462042	0.777693	0.866739
H299	H	0.163350	0.913189	0.901992
H300	H	0.043106	0.842470	0.775580
H301	H	0.079329	0.968528	0.904788
H302	H	0.231739	0.954901	0.942622
H303	H	0.104442	0.795080	0.815747
H304	H	0.018943	0.910592	0.950271
H305	H	0.365766	0.751335	0.861196
H306	H	0.484839	0.992400	0.994061
H307	H	0.271619	0.990222	0.907687
H308	H	0.390966	0.997691	0.794352
H309	H	0.451696	0.778981	0.779386
H310	H	0.395278	0.833446	0.817997
H311	H	0.485760	0.873048	0.915857
H312	H	0.172669	0.764197	0.807485
H313	H	0.180739	0.880108	0.860914
H314	H	0.130704	0.857621	0.847831
H315	H	0.303163	0.871019	0.983734
H316	H	0.250634	0.892709	0.971379
H317	H	0.034089	0.771876	0.911710
H318	H	0.204703	0.761171	0.975695
H319	H	0.329804	0.865562	0.810116
H320	H	0.334854	0.891798	0.779885
N119	N	0.154069	0.960871	0.925907
N120	N	0.026624	0.787914	0.799562
N121	N	0.092730	0.913015	0.927675
N122	N	0.471302	0.837452	0.799269
N123	N	0.152135	0.754515	0.788852
N124	N	0.141875	0.874091	0.861137
N125	N	0.263965	0.876433	0.984458
N126	N	0.019064	0.755839	0.924077
N127	N	0.241674	0.753049	0.979279
N128	N	0.350052	0.875538	0.792305
Ni31	Ni	0.123593	0.937457	0.960835
Ni32	Ni	0.000082	0.812694	0.832980
O121	O	0.066374	0.836632	0.845375
O122	O	0.186836	0.912435	0.970590
O123	O	0.060984	0.963156	0.968398
O124	O	0.110670	0.908917	0.994754
O125	O	0.011659	0.785014	0.869203
O126	O	0.136843	0.965650	0.995277
O127	O	0.434298	0.790184	0.845059
O128	O	0.489517	0.840083	0.868571
C385	C	0.640527	0.244398	0.134291
C386	C	0.513270	0.003334	0.009357
C387	C	0.729052	0.236018	0.155670
C388	C	0.601023	0.010796	0.033029
C389	C	0.608249	0.132665	0.133389
C390	C	0.624193	0.153910	0.154389
C391	C	0.621592	0.223797	0.155039
C392	C	0.993850	0.023759	0.029147
C393	C	0.707177	0.216231	0.175475
C394	C	0.578788	0.032520	0.050440
C395	C	0.543297	0.152359	0.181130
C396	C	0.524879	0.131474	0.161176
C397	C	0.556660	0.120960	0.136929
C398	C	0.588673	0.224523	0.241310
C399	C	0.537772	0.098715	0.116470
C400	C	0.657982	0.149636	0.241218
C401	C	0.941159	0.006231	0.137219
C402	C	0.823171	0.247429	0.011117
C403	C	0.983516	0.121120	0.008059
C404	C	0.502511	0.099948	0.027331
C405	C	0.920536	0.095003	0.051995
C406	C	0.899146	0.117433	0.034878
C407	C	0.931396	0.130433	0.011326
C408	C	0.962042	0.027693	0.116739
H321	H	0.663350	0.163189	0.151993
H322	H	0.543106	0.092470	0.025580
H323	H	0.579330	0.218528	0.154788
H324	H	0.731739	0.204901	0.192622
H325	H	0.604442	0.045080	0.065747
H326	H	0.518943	0.160592	0.200271
H327	H	0.865766	0.001335	0.111196
H328	H	0.984838	0.242400	0.244061
H329	H	0.771619	0.240222	0.157688
H330	H	0.890966	0.247691	0.044352
H331	H	0.951696	0.028981	0.029386
H332	H	0.895278	0.083447	0.067997
H333	H	0.985760	0.123048	0.165857
H334	H	0.672669	0.014198	0.057485
H335	H	0.680740	0.130108	0.110914
H336	H	0.630704	0.107621	0.097831
H337	H	0.803163	0.121019	0.233734
H338	H	0.750633	0.142709	0.221379
H339	H	0.534088	0.021876	0.161710
H340	H	0.704703	0.011171	0.225694
H341	H	0.829804	0.115562	0.060116
H342	H	0.834855	0.141798	0.029885
N129	N	0.654069	0.210871	0.175907
N130	N	0.526624	0.037914	0.049563
N131	N	0.592731	0.163015	0.177675
N132	N	0.971302	0.087452	0.049269
N133	N	0.652135	0.004515	0.038852
N134	N	0.641876	0.124091	0.111137
N135	N	0.763965	0.126434	0.234458
N136	N	0.519064	0.005839	0.174077
N137	N	0.741675	0.003049	0.229279
N138	N	0.850051	0.125538	0.042305
Ni33	Ni	0.623593	0.187457	0.210835
Ni34	Ni	0.500082	0.062694	0.082980
O129	O	0.566374	0.086632	0.095375
O130	O	0.686836	0.162435	0.220590
O131	O	0.560983	0.213155	0.218397
O132	O	0.610669	0.158917	0.244755
O133	O	0.511660	0.035014	0.119203
O134	O	0.636843	0.215649	0.245277
O135	O	0.934298	0.040183	0.095060
O136	O	0.989518	0.090083	0.118571
C409	C	0.696249	0.001053	0.384972
C410	C	0.567223	0.246315	0.260833
C411	C	0.730654	0.116076	0.255903
C412	C	0.748495	0.094827	0.276473
C413	C	0.665767	0.092166	0.300323
C414	C	0.645408	0.113287	0.281534
C415	C	0.677667	0.126251	0.259387
C416	C	0.717413	0.023461	0.366036
C417	C	0.891593	0.244372	0.380997
C418	C	0.773023	0.010131	0.254384
C419	C	0.971990	0.245856	0.414114
C420	C	0.852444	0.006523	0.288078
C421	C	0.859028	0.127083	0.387996
C422	C	0.878059	0.148664	0.407759
C423	C	0.873964	0.223205	0.400270
C424	C	0.755653	0.030800	0.275294
C425	C	0.951597	0.223981	0.432245
C426	C	0.831877	0.026520	0.308108
C427	C	0.791727	0.158677	0.423183
C428	C	0.769907	0.138035	0.404185
C429	C	0.802683	0.121926	0.385639
C430	C	0.842788	0.225434	0.491053
C431	C	0.781327	0.099758	0.365847
C432	C	0.910241	0.152506	0.491482
H343	H	0.510455	0.130514	0.491131
H344	H	0.717850	0.040913	0.270135
H345	H	0.641263	0.081661	0.317640
H346	H	0.727175	0.134177	0.405254
H347	H	0.604763	0.120101	0.285189
H348	H	0.920710	0.152966	0.409875
H349	H	0.788950	0.087012	0.274395
H350	H	0.835672	0.213522	0.395696
H351	H	0.975289	0.215628	0.452371
H352	H	0.854031	0.033656	0.329387
H353	H	0.766733	0.171208	0.438084
H354	H	0.565184	0.006761	0.367445
H355	H	0.621294	0.023592	0.352910
H356	H	0.666517	0.237969	0.276969
H357	H	0.539328	0.246240	0.442685
H358	H	0.753953	0.237290	0.465351
H359	H	0.934582	0.111178	0.376073
H360	H	0.876831	0.095277	0.361006
N139	N	0.717375	0.084044	0.298993
N140	N	0.903668	0.213507	0.425693
N141	N	0.783593	0.038013	0.301899
N142	N	0.845052	0.163677	0.425161
N143	N	0.605868	0.007778	0.365517
N144	N	0.893417	0.111153	0.373445
Ni35	Ni	0.749772	0.061237	0.334958
Ni36	Ni	0.875263	0.188839	0.458766
O137	O	0.688828	0.035320	0.343181
O138	O	0.733893	0.090742	0.368555
O139	O	0.810092	0.087753	0.344146
O140	O	0.938163	0.165002	0.470482
O141	O	0.813484	0.213981	0.468733
O142	O	0.861262	0.160502	0.493506
O143	O	0.764137	0.033043	0.370594
O144	O	0.890261	0.216111	0.494443
C433	C	0.640527	0.244398	0.634291
C434	C	0.513270	0.003334	0.509357
C435	C	0.729052	0.236018	0.655670
C436	C	0.601023	0.010796	0.533029
C437	C	0.608249	0.132665	0.633389
C438	C	0.624193	0.153910	0.654389
C439	C	0.621592	0.223797	0.655039
C440	C	0.993850	0.023759	0.529147
C441	C	0.707177	0.216231	0.675474
C442	C	0.578788	0.032520	0.550440
C443	C	0.543297	0.152359	0.681130
C444	C	0.524879	0.131474	0.661176
C445	C	0.556660	0.120960	0.636929
C446	C	0.588673	0.224523	0.741310
C447	C	0.537772	0.098715	0.616470
C448	C	0.657982	0.149636	0.741218
C449	C	0.941159	0.006231	0.637219
C450	C	0.823171	0.247429	0.511117
C451	C	0.983516	0.121120	0.508059
C452	C	0.502511	0.099948	0.527331
C453	C	0.920536	0.095003	0.551995
C454	C	0.899146	0.117433	0.534878
C455	C	0.931396	0.130433	0.511326
C456	C	0.962042	0.027693	0.616739
H361	H	0.663350	0.163189	0.651992
H362	H	0.543106	0.092470	0.525580
H363	H	0.579330	0.218528	0.654788
H364	H	0.731739	0.204901	0.692622
H365	H	0.604442	0.045080	0.565747
H366	H	0.518943	0.160592	0.700271
H367	H	0.865766	0.001335	0.611196
H368	H	0.984838	0.242400	0.744061
H369	H	0.771619	0.240222	0.657687
H370	H	0.890966	0.247691	0.544352
H371	H	0.951696	0.028981	0.529386
H372	H	0.895278	0.083447	0.567997
H373	H	0.985760	0.123048	0.665857
H374	H	0.672669	0.014198	0.557485
H375	H	0.680740	0.130108	0.610914
H376	H	0.630704	0.107621	0.597831
H377	H	0.803163	0.121019	0.733734
H378	H	0.750633	0.142709	0.721379
H379	H	0.534088	0.021876	0.661710
H380	H	0.704703	0.011171	0.725695
H381	H	0.829804	0.115562	0.560116
H382	H	0.834855	0.141798	0.529885
N145	N	0.654069	0.210871	0.675907
N146	N	0.526624	0.037914	0.549562
N147	N	0.592731	0.163015	0.677675
N148	N	0.971302	0.087452	0.549269
N149	N	0.652135	0.004515	0.538852
N150	N	0.641876	0.124091	0.611137
N151	N	0.763965	0.126434	0.734458
N152	N	0.519064	0.005839	0.674077
N153	N	0.741675	0.003049	0.729279
N154	N	0.850051	0.125538	0.542305
Ni37	Ni	0.623593	0.187457	0.710835
Ni38	Ni	0.500082	0.062694	0.582980
O145	O	0.566374	0.086632	0.595375
O146	O	0.686836	0.162435	0.720590
O147	O	0.560983	0.213155	0.718398
O148	O	0.610669	0.158917	0.744754
O149	O	0.511660	0.035014	0.619203
O150	O	0.636843	0.215649	0.745277
O151	O	0.934298	0.040183	0.595059
O152	O	0.989518	0.090083	0.618571
C457	C	0.696249	0.001053	0.884972
C458	C	0.567223	0.246315	0.760833
C459	C	0.730654	0.116076	0.755903
C460	C	0.748495	0.094827	0.776473
C461	C	0.665767	0.092166	0.800323
C462	C	0.645408	0.113287	0.781534
C463	C	0.677667	0.126251	0.759387
C464	C	0.717413	0.023461	0.866036
C465	C	0.891593	0.244372	0.880997
C466	C	0.773023	0.010131	0.754384
C467	C	0.971990	0.245856	0.914114
C468	C	0.852444	0.006523	0.788078
C469	C	0.859028	0.127083	0.887996
C470	C	0.878059	0.148664	0.907759
C471	C	0.873964	0.223205	0.900270
C472	C	0.755653	0.030800	0.775294
C473	C	0.951597	0.223981	0.932245
C474	C	0.831877	0.026520	0.808108
C475	C	0.791727	0.158677	0.923183
C476	C	0.769907	0.138035	0.904185
C477	C	0.802683	0.121926	0.885639
C478	C	0.842788	0.225434	0.991053
C479	C	0.781327	0.099758	0.865846
C480	C	0.910241	0.152506	0.991483
H383	H	0.510455	0.130514	0.991131
H384	H	0.717850	0.040913	0.770135
H385	H	0.641263	0.081661	0.817640
H386	H	0.727175	0.134177	0.905254
H387	H	0.604763	0.120101	0.785189
H388	H	0.920710	0.152966	0.909875
H389	H	0.788950	0.087012	0.774395
H390	H	0.835672	0.213522	0.895696
H391	H	0.975289	0.215628	0.952371
H392	H	0.854031	0.033656	0.829387
H393	H	0.766733	0.171208	0.938084
H394	H	0.565184	0.006761	0.867445
H395	H	0.621294	0.023592	0.852910
H396	H	0.666517	0.237969	0.776969
H397	H	0.539328	0.246240	0.942685
H398	H	0.753953	0.237290	0.965351
H399	H	0.934582	0.111178	0.876073
H400	H	0.876831	0.095277	0.861006
N155	N	0.717375	0.084044	0.798993
N156	N	0.903668	0.213507	0.925693
N157	N	0.783593	0.038013	0.801898
N158	N	0.845052	0.163677	0.925161
N159	N	0.605868	0.007778	0.865517
N160	N	0.893417	0.111153	0.873444
Ni39	Ni	0.749772	0.061237	0.834958
Ni40	Ni	0.875263	0.188839	0.958766
O153	O	0.688828	0.035320	0.843181
O154	O	0.733893	0.090742	0.868555
O155	O	0.810092	0.087753	0.844146
O156	O	0.938163	0.165002	0.970482
O157	O	0.813484	0.213981	0.968733
O158	O	0.861262	0.160502	0.993506
O159	O	0.764137	0.033043	0.870594
O160	O	0.890261	0.216111	0.994443
C481	C	0.696249	0.251053	0.134971
C482	C	0.567223	0.496315	0.010833
C483	C	0.730654	0.366076	0.005903
C484	C	0.748495	0.344827	0.026473
C485	C	0.665767	0.342166	0.050323
C486	C	0.645408	0.363287	0.031534
C487	C	0.677667	0.376251	0.009388
C488	C	0.717413	0.273461	0.116037
C489	C	0.891593	0.494372	0.130997
C490	C	0.773023	0.260131	0.004384
C491	C	0.971990	0.495856	0.164114
C492	C	0.852444	0.256523	0.038078
C493	C	0.859028	0.377083	0.137996
C494	C	0.878059	0.398664	0.157759
C495	C	0.873964	0.473205	0.150270
C496	C	0.755653	0.280800	0.025294
C497	C	0.951597	0.473981	0.182245
C498	C	0.831877	0.276520	0.058108
C499	C	0.791727	0.408678	0.173183
C500	C	0.769907	0.388035	0.154186
C501	C	0.802683	0.371926	0.135639
C502	C	0.842788	0.475434	0.241053
C503	C	0.781327	0.349758	0.115847
C504	C	0.910241	0.402506	0.241482
H401	H	0.510455	0.380514	0.241131
H402	H	0.717850	0.290913	0.020136
H403	H	0.641263	0.331661	0.067640
H404	H	0.727175	0.384177	0.155254
H405	H	0.604763	0.370101	0.035189
H406	H	0.920710	0.402966	0.159875
H407	H	0.788950	0.337012	0.024395
H408	H	0.835672	0.463522	0.145696
H409	H	0.975289	0.465628	0.202371
H410	H	0.854031	0.283656	0.079387
H411	H	0.766733	0.421208	0.188084
H412	H	0.565184	0.256761	0.117445
H413	H	0.621294	0.273592	0.102910
H414	H	0.666517	0.487969	0.026969
H415	H	0.539328	0.496240	0.192685
H416	H	0.753953	0.487290	0.215351
H417	H	0.934582	0.361178	0.126073
H418	H	0.876831	0.345276	0.111006
N161	N	0.717375	0.334044	0.048993
N162	N	0.903668	0.463507	0.175693
N163	N	0.783593	0.288013	0.051899
N164	N	0.845052	0.413677	0.175161
N165	N	0.605868	0.257778	0.115517
N166	N	0.893417	0.361153	0.123444
Ni41	Ni	0.749772	0.311237	0.084958
Ni42	Ni	0.875263	0.438839	0.208766
O161	O	0.688828	0.285320	0.093181
O162	O	0.733893	0.340742	0.118555
O163	O	0.810092	0.337753	0.094146
O164	O	0.938163	0.415002	0.220482
O165	O	0.813484	0.463981	0.218733
O166	O	0.861262	0.410502	0.243506
O167	O	0.764137	0.283042	0.120594
O168	O	0.890261	0.466111	0.244443
C505	C	0.640527	0.494398	0.384291
C506	C	0.513270	0.253333	0.259357
C507	C	0.729052	0.486019	0.405670
C508	C	0.601023	0.260796	0.283029
C509	C	0.608249	0.382665	0.383389
C510	C	0.624193	0.403910	0.404389
C511	C	0.621592	0.473797	0.405039
C512	C	0.993850	0.273759	0.279147
C513	C	0.707177	0.466231	0.425474
C514	C	0.578788	0.282520	0.300440
C515	C	0.543297	0.402359	0.431130
C516	C	0.524879	0.381474	0.411176
C517	C	0.556660	0.370960	0.386929
C518	C	0.588673	0.474523	0.491310
C519	C	0.537772	0.348716	0.366470
C520	C	0.657982	0.399636	0.491218
C521	C	0.941159	0.256231	0.387219
C522	C	0.823171	0.497429	0.261117
C523	C	0.983516	0.371120	0.258059
C524	C	0.502511	0.349948	0.277331
C525	C	0.920536	0.345003	0.301995
C526	C	0.899146	0.367433	0.284878
C527	C	0.931396	0.380433	0.261326
C528	C	0.962042	0.277693	0.366739
H419	H	0.663350	0.413189	0.401992
H420	H	0.543106	0.342470	0.275580
H421	H	0.579330	0.468528	0.404788
H422	H	0.731739	0.454901	0.442622
H423	H	0.604442	0.295080	0.315747
H424	H	0.518943	0.410592	0.450271
H425	H	0.865766	0.251335	0.361196
H426	H	0.984838	0.492400	0.494061
H427	H	0.771619	0.490222	0.407687
H428	H	0.890966	0.497691	0.294352
H429	H	0.951696	0.278981	0.279386
H430	H	0.895278	0.333446	0.317997
H431	H	0.985760	0.373048	0.415857
H432	H	0.672669	0.264197	0.307485
H433	H	0.680740	0.380108	0.360914
H434	H	0.630704	0.357621	0.347831
H435	H	0.803163	0.371019	0.483734
H436	H	0.750633	0.392709	0.471379
H437	H	0.534088	0.271876	0.411710
H438	H	0.704703	0.261171	0.475695
H439	H	0.829804	0.365562	0.310116
H440	H	0.834855	0.391798	0.279885
N167	N	0.654069	0.460871	0.425907
N168	N	0.526624	0.287913	0.299563
N169	N	0.592731	0.413015	0.427675
N170	N	0.971302	0.337452	0.299269
N171	N	0.652135	0.254515	0.288852
N172	N	0.641876	0.374091	0.361137
N173	N	0.763965	0.376433	0.484458
N174	N	0.519064	0.255839	0.424077
N175	N	0.741675	0.253049	0.479279
N176	N	0.850051	0.375538	0.292305
Ni43	Ni	0.623593	0.437457	0.460835
Ni44	Ni	0.500082	0.312694	0.332980
O169	O	0.566374	0.336632	0.345375
O170	O	0.686836	0.412435	0.470590
O171	O	0.560983	0.463155	0.468398
O172	O	0.610669	0.408917	0.494754
O173	O	0.511660	0.285015	0.369203
O174	O	0.636843	0.465649	0.495277
O175	O	0.934298	0.290183	0.345060
O176	O	0.989518	0.340083	0.368571
C529	C	0.696249	0.251053	0.634972
C530	C	0.567223	0.496315	0.510833
C531	C	0.730654	0.366076	0.505903
C532	C	0.748495	0.344827	0.526473
C533	C	0.665767	0.342166	0.550323
C534	C	0.645408	0.363287	0.531534
C535	C	0.677667	0.376251	0.509387
C536	C	0.717413	0.273461	0.616036
C537	C	0.891593	0.494372	0.630997
C538	C	0.773023	0.260131	0.504384
C539	C	0.971990	0.495856	0.664114
C540	C	0.852444	0.256523	0.538078
C541	C	0.859028	0.377083	0.637996
C542	C	0.878059	0.398664	0.657759
C543	C	0.873964	0.473205	0.650270
C544	C	0.755653	0.280800	0.525294
C545	C	0.951597	0.473981	0.682245
C546	C	0.831877	0.276520	0.558108
C547	C	0.791727	0.408678	0.673183
C548	C	0.769907	0.388035	0.654185
C549	C	0.802683	0.371926	0.635639
C550	C	0.842788	0.475434	0.741053
C551	C	0.781327	0.349758	0.615846
C552	C	0.910241	0.402506	0.741483
H441	H	0.510455	0.380514	0.741131
H442	H	0.717850	0.290913	0.520135
H443	H	0.641263	0.331661	0.567640
H444	H	0.727175	0.384177	0.655254
H445	H	0.604763	0.370101	0.535189
H446	H	0.920710	0.402966	0.659875
H447	H	0.788950	0.337012	0.524395
H448	H	0.835672	0.463522	0.645696
H449	H	0.975289	0.465628	0.702371
H450	H	0.854031	0.283656	0.579387
H451	H	0.766733	0.421208	0.688084
H452	H	0.565184	0.256761	0.617445
H453	H	0.621294	0.273592	0.602910
H454	H	0.666517	0.487969	0.526969
H455	H	0.539328	0.496240	0.692685
H456	H	0.753953	0.487290	0.715351
H457	H	0.934582	0.361178	0.626073
H458	H	0.876831	0.345276	0.611006
N177	N	0.717375	0.334044	0.548993
N178	N	0.903668	0.463507	0.675693
N179	N	0.783593	0.288013	0.551898
N180	N	0.845052	0.413677	0.675161
N181	N	0.605868	0.257778	0.615517
N182	N	0.893417	0.361153	0.623444
Ni45	Ni	0.749772	0.311237	0.584958
Ni46	Ni	0.875263	0.438839	0.708766
O177	O	0.688828	0.285320	0.593181
O178	O	0.733893	0.340742	0.618555
O179	O	0.810092	0.337753	0.594146
O180	O	0.938163	0.415002	0.720482
O181	O	0.813484	0.463981	0.718733
O182	O	0.861262	0.410502	0.743506
O183	O	0.764137	0.283042	0.620594
O184	O	0.890261	0.466111	0.744443
C553	C	0.640527	0.494398	0.884291
C554	C	0.513270	0.253333	0.759357
C555	C	0.729052	0.486019	0.905670
C556	C	0.601023	0.260796	0.783029
C557	C	0.608249	0.382665	0.883389
C558	C	0.624193	0.403910	0.904389
C559	C	0.621592	0.473797	0.905039
C560	C	0.993850	0.273759	0.779147
C561	C	0.707177	0.466231	0.925474
C562	C	0.578788	0.282520	0.800440
C563	C	0.543297	0.402359	0.931130
C564	C	0.524879	0.381474	0.911176
C565	C	0.556660	0.370960	0.886929
C566	C	0.588673	0.474523	0.991310
C567	C	0.537772	0.348716	0.866470
C568	C	0.657982	0.399636	0.991218
C569	C	0.941159	0.256231	0.887219
C570	C	0.823171	0.497429	0.761117
C571	C	0.983516	0.371120	0.758059
C572	C	0.502511	0.349948	0.777331
C573	C	0.920536	0.345003	0.801995
C574	C	0.899146	0.367433	0.784878
C575	C	0.931396	0.380433	0.761326
C576	C	0.962042	0.277693	0.866739
H459	H	0.663350	0.413189	0.901992
H460	H	0.543106	0.342470	0.775580
H461	H	0.579330	0.468528	0.904788
H462	H	0.731739	0.454901	0.942622
H463	H	0.604442	0.295080	0.815747
H464	H	0.518943	0.410592	0.950271
H465	H	0.865766	0.251335	0.861196
H466	H	0.984838	0.492400	0.994061
H467	H	0.771619	0.490222	0.907687
H468	H	0.890966	0.497691	0.794352
H469	H	0.951696	0.278981	0.779386
H470	H	0.895278	0.333446	0.817997
H471	H	0.985760	0.373048	0.915857
H472	H	0.672669	0.264197	0.807485
H473	H	0.680740	0.380108	0.860914
H474	H	0.630704	0.357621	0.847831
H475	H	0.803163	0.371019	0.983734
H476	H	0.750633	0.392709	0.971379
H477	H	0.534088	0.271876	0.911710
H478	H	0.704703	0.261171	0.975695
H479	H	0.829804	0.365562	0.810116
H480	H	0.834855	0.391798	0.779885
N183	N	0.654069	0.460871	0.925907
N184	N	0.526624	0.287913	0.799562
N185	N	0.592731	0.413015	0.927675
N186	N	0.971302	0.337452	0.799269
N187	N	0.652135	0.254515	0.788852
N188	N	0.641876	0.374091	0.861137
N189	N	0.763965	0.376433	0.984458
N190	N	0.519064	0.255839	0.924077
N191	N	0.741675	0.253049	0.979279
N192	N	0.850051	0.375538	0.792305
Ni47	Ni	0.623593	0.437457	0.960835
Ni48	Ni	0.500082	0.312694	0.832980
O185	O	0.566374	0.336632	0.845375
O186	O	0.686836	0.412435	0.970590
O187	O	0.560983	0.463155	0.968398
O188	O	0.610669	0.408917	0.994754
O189	O	0.511660	0.285015	0.869203
O190	O	0.636843	0.465649	0.995277
O191	O	0.934298	0.290183	0.845059
O192	O	0.989518	0.340083	0.868571
C577	C	0.640527	0.744398	0.134291
C578	C	0.513270	0.503333	0.009357
C579	C	0.729052	0.736019	0.155670
C580	C	0.601023	0.510796	0.033029
C581	C	0.608249	0.632665	0.133389
C582	C	0.624193	0.653910	0.154389
C583	C	0.621592	0.723797	0.155039
C584	C	0.993850	0.523759	0.029147
C585	C	0.707177	0.716231	0.175475
C586	C	0.578788	0.532520	0.050440
C587	C	0.543297	0.652359	0.181130
C588	C	0.524879	0.631474	0.161176
C589	C	0.556660	0.620960	0.136929
C590	C	0.588673	0.724523	0.241310
C591	C	0.537772	0.598715	0.116470
C592	C	0.657982	0.649636	0.241218
C593	C	0.941159	0.506231	0.137219
C594	C	0.823171	0.747429	0.011117
C595	C	0.983516	0.621120	0.008059
C596	C	0.502511	0.599948	0.027331
C597	C	0.920536	0.595003	0.051995
C598	C	0.899146	0.617433	0.034878
C599	C	0.931396	0.630433	0.011326
C600	C	0.962042	0.527693	0.116739
H481	H	0.663350	0.663189	0.151993
H482	H	0.543106	0.592470	0.025580
H483	H	0.579330	0.718528	0.154788
H484	H	0.731739	0.704901	0.192622
H485	H	0.604442	0.545080	0.065747
H486	H	0.518943	0.660592	0.200271
H487	H	0.865766	0.501335	0.111196
H488	H	0.984838	0.742400	0.244061
H489	H	0.771619	0.740222	0.157688
H490	H	0.890966	0.747691	0.044352
H491	H	0.951696	0.528981	0.029386
H492	H	0.895278	0.583446	0.067997
H493	H	0.985760	0.623048	0.165857
H494	H	0.672669	0.514197	0.057485
H495	H	0.680740	0.630108	0.110914
H496	H	0.630704	0.607621	0.097831
H497	H	0.803163	0.621019	0.233734
H498	H	0.750633	0.642709	0.221379
H499	H	0.534088	0.521876	0.161710
H500	H	0.704703	0.511171	0.225694
H501	H	0.829804	0.615562	0.060116
H502	H	0.834855	0.641798	0.029885
N193	N	0.654069	0.710871	0.175907
N194	N	0.526624	0.537914	0.049563
N195	N	0.592731	0.663015	0.177675
N196	N	0.971302	0.587452	0.049269
N197	N	0.652135	0.504515	0.038852
N198	N	0.641876	0.624091	0.111137
N199	N	0.763965	0.626433	0.234458
N200	N	0.519064	0.505839	0.174077
N201	N	0.741675	0.503049	0.229279
N202	N	0.850051	0.625538	0.042305
Ni49	Ni	0.623593	0.687457	0.210835
Ni50	Ni	0.500082	0.562694	0.082980
O193	O	0.566374	0.586632	0.095375
O194	O	0.686836	0.662435	0.220590
O195	O	0.560983	0.713156	0.218397
O196	O	0.610669	0.658917	0.244755
O197	O	0.511660	0.535014	0.119203
O198	O	0.636843	0.715650	0.245277
O199	O	0.934298	0.540184	0.095060
O200	O	0.989518	0.590083	0.118571
C601	C	0.696249	0.501053	0.384972
C602	C	0.567223	0.746315	0.260833
C603	C	0.730654	0.616076	0.255903
C604	C	0.748495	0.594827	0.276473
C605	C	0.665767	0.592167	0.300323
C606	C	0.645408	0.613287	0.281534
C607	C	0.677667	0.626251	0.259387
C608	C	0.717413	0.523461	0.366036
C609	C	0.891593	0.744372	0.380997
C610	C	0.773023	0.510131	0.254384
C611	C	0.971990	0.745856	0.414114
C612	C	0.852444	0.506523	0.288078
C613	C	0.859028	0.627083	0.387996
C614	C	0.878059	0.648664	0.407759
C615	C	0.873964	0.723205	0.400270
C616	C	0.755653	0.530800	0.275294
C617	C	0.951597	0.723981	0.432245
C618	C	0.831877	0.526520	0.308108
C619	C	0.791727	0.658678	0.423183
C620	C	0.769907	0.638035	0.404185
C621	C	0.802683	0.621926	0.385639
C622	C	0.842788	0.725434	0.491053
C623	C	0.781327	0.599758	0.365847
C624	C	0.910241	0.652506	0.491482
H503	H	0.510455	0.630514	0.491131
H504	H	0.717850	0.540913	0.270135
H505	H	0.641263	0.581662	0.317640
H506	H	0.727175	0.634177	0.405254
H507	H	0.604763	0.620101	0.285189
H508	H	0.920710	0.652966	0.409875
H509	H	0.788950	0.587012	0.274395
H510	H	0.835672	0.713522	0.395696
H511	H	0.975289	0.715628	0.452371
H512	H	0.854031	0.533656	0.329387
H513	H	0.766733	0.671208	0.438084
H514	H	0.565184	0.506761	0.367445
H515	H	0.621294	0.523592	0.352910
H516	H	0.666517	0.737969	0.276969
H517	H	0.539328	0.746240	0.442685
H518	H	0.753953	0.737290	0.465351
H519	H	0.934582	0.611178	0.376073
H520	H	0.876831	0.595276	0.361006
N203	N	0.717375	0.584044	0.298993
N204	N	0.903668	0.713507	0.425693
N205	N	0.783593	0.538013	0.301899
N206	N	0.845052	0.663677	0.425161
N207	N	0.605868	0.507778	0.365517
N208	N	0.893417	0.611153	0.373445
Ni51	Ni	0.749772	0.561237	0.334958
Ni52	Ni	0.875263	0.688839	0.458766
O201	O	0.688828	0.535320	0.343181
O202	O	0.733893	0.590742	0.368555
O203	O	0.810092	0.587754	0.344146
O204	O	0.938163	0.665002	0.470482
O205	O	0.813484	0.713981	0.468733
O206	O	0.861262	0.660502	0.493506
O207	O	0.764137	0.533042	0.370594
O208	O	0.890261	0.716111	0.494443
C625	C	0.640527	0.744398	0.634291
C626	C	0.513270	0.503333	0.509357
C627	C	0.729052	0.736019	0.655670
C628	C	0.601023	0.510796	0.533029
C629	C	0.608249	0.632665	0.633389
C630	C	0.624193	0.653910	0.654389
C631	C	0.621592	0.723797	0.655039
C632	C	0.993850	0.523759	0.529147
C633	C	0.707177	0.716231	0.675474
C634	C	0.578788	0.532520	0.550440
C635	C	0.543297	0.652359	0.681130
C636	C	0.524879	0.631474	0.661176
C637	C	0.556660	0.620960	0.636929
C638	C	0.588673	0.724523	0.741310
C639	C	0.537772	0.598715	0.616470
C640	C	0.657982	0.649636	0.741218
C641	C	0.941159	0.506231	0.637219
C642	C	0.823171	0.747429	0.511117
C643	C	0.983516	0.621120	0.508059
C644	C	0.502511	0.599948	0.527331
C645	C	0.920536	0.595003	0.551995
C646	C	0.899146	0.617433	0.534878
C647	C	0.931396	0.630433	0.511326
C648	C	0.962042	0.527693	0.616739
H521	H	0.663350	0.663189	0.651992
H522	H	0.543106	0.592470	0.525580
H523	H	0.579330	0.718528	0.654788
H524	H	0.731739	0.704901	0.692622
H525	H	0.604442	0.545080	0.565747
H526	H	0.518943	0.660592	0.700271
H527	H	0.865766	0.501335	0.611196
H528	H	0.984838	0.742400	0.744061
H529	H	0.771619	0.740222	0.657687
H530	H	0.890966	0.747691	0.544352
H531	H	0.951696	0.528981	0.529386
H532	H	0.895278	0.583446	0.567997
H533	H	0.985760	0.623048	0.665857
H534	H	0.672669	0.514197	0.557485
H535	H	0.680740	0.630108	0.610914
H536	H	0.630704	0.607621	0.597831
H537	H	0.803163	0.621019	0.733734
H538	H	0.750633	0.642709	0.721379
H539	H	0.534088	0.521876	0.661710
H540	H	0.704703	0.511171	0.725695
H541	H	0.829804	0.615562	0.560116
H542	H	0.834855	0.641798	0.529885
N209	N	0.654069	0.710871	0.675907
N210	N	0.526624	0.537914	0.549562
N211	N	0.592731	0.663015	0.677675
N212	N	0.971302	0.587452	0.549269
N213	N	0.652135	0.504515	0.538852
N214	N	0.641876	0.624091	0.611137
N215	N	0.763965	0.626433	0.734458
N216	N	0.519064	0.505839	0.674077
N217	N	0.741675	0.503049	0.729279
N218	N	0.850051	0.625538	0.542305
Ni53	Ni	0.623593	0.687457	0.710835
Ni54	Ni	0.500082	0.562694	0.582980
O209	O	0.566374	0.586632	0.595375
O210	O	0.686836	0.662435	0.720590
O211	O	0.560983	0.713156	0.718398
O212	O	0.610669	0.658917	0.744754
O213	O	0.511660	0.535014	0.619203
O214	O	0.636843	0.715650	0.745277
O215	O	0.934298	0.540184	0.595059
O216	O	0.989518	0.590083	0.618571
C649	C	0.696249	0.501053	0.884972
C650	C	0.567223	0.746315	0.760833
C651	C	0.730654	0.616076	0.755903
C652	C	0.748495	0.594827	0.776473
C653	C	0.665767	0.592167	0.800323
C654	C	0.645408	0.613287	0.781534
C655	C	0.677667	0.626251	0.759387
C656	C	0.717413	0.523461	0.866036
C657	C	0.891593	0.744372	0.880997
C658	C	0.773023	0.510131	0.754384
C659	C	0.971990	0.745856	0.914114
C660	C	0.852444	0.506523	0.788078
C661	C	0.859028	0.627083	0.887996
C662	C	0.878059	0.648664	0.907759
C663	C	0.873964	0.723205	0.900270
C664	C	0.755653	0.530800	0.775294
C665	C	0.951597	0.723981	0.932245
C666	C	0.831877	0.526520	0.808108
C667	C	0.791727	0.658678	0.923183
C668	C	0.769907	0.638035	0.904185
C669	C	0.802683	0.621926	0.885639
C670	C	0.842788	0.725434	0.991053
C671	C	0.781327	0.599758	0.865846
C672	C	0.910241	0.652506	0.991483
H543	H	0.510455	0.630514	0.991131
H544	H	0.717850	0.540913	0.770135
H545	H	0.641263	0.581662	0.817640
H546	H	0.727175	0.634177	0.905254
H547	H	0.604763	0.620101	0.785189
H548	H	0.920710	0.652966	0.909875
H549	H	0.788950	0.587012	0.774395
H550	H	0.835672	0.713522	0.895696
H551	H	0.975289	0.715628	0.952371
H552	H	0.854031	0.533656	0.829387
H553	H	0.766733	0.671208	0.938084
H554	H	0.565184	0.506761	0.867445
H555	H	0.621294	0.523592	0.852910
H556	H	0.666517	0.737969	0.776969
H557	H	0.539328	0.746240	0.942685
H558	H	0.753953	0.737290	0.965351
H559	H	0.934582	0.611178	0.876073
H560	H	0.876831	0.595276	0.861006
N219	N	0.717375	0.584044	0.798993
N220	N	0.903668	0.713507	0.925693
N221	N	0.783593	0.538013	0.801898
N222	N	0.845052	0.663677	0.925161
N223	N	0.605868	0.507778	0.865517
N224	N	0.893417	0.611153	0.873444
Ni55	Ni	0.749772	0.561237	0.834958
Ni56	Ni	0.875263	0.688839	0.958766
O217	O	0.688828	0.535320	0.843181
O218	O	0.733893	0.590742	0.868555
O219	O	0.810092	0.587754	0.844146
O220	O	0.938163	0.665002	0.970482
O221	O	0.813484	0.713981	0.968733
O222	O	0.861262	0.660502	0.993506
O223	O	0.764137	0.533042	0.870594
O224	O	0.890261	0.716111	0.994443
C673	C	0.696249	0.751053	0.134971
C674	C	0.567223	0.996315	0.010833
C675	C	0.730654	0.866076	0.005903
C676	C	0.748495	0.844827	0.026473
C677	C	0.665767	0.842167	0.050323
C678	C	0.645408	0.863287	0.031534
C679	C	0.677667	0.876251	0.009388
C680	C	0.717413	0.773461	0.116037
C681	C	0.891593	0.994372	0.130997
C682	C	0.773023	0.760131	0.004384
C683	C	0.971990	0.995856	0.164114
C684	C	0.852444	0.756523	0.038078
C685	C	0.859028	0.877083	0.137996
C686	C	0.878059	0.898664	0.157759
C687	C	0.873964	0.973205	0.150270
C688	C	0.755653	0.780800	0.025294
C689	C	0.951597	0.973981	0.182245
C690	C	0.831877	0.776520	0.058108
C691	C	0.791727	0.908678	0.173183
C692	C	0.769907	0.888035	0.154186
C693	C	0.802683	0.871926	0.135639
C694	C	0.842788	0.975434	0.241053
C695	C	0.781327	0.849758	0.115847
C696	C	0.910241	0.902506	0.241482
H561	H	0.510455	0.880514	0.241131
H562	H	0.717850	0.790913	0.020136
H563	H	0.641263	0.831662	0.067640
H564	H	0.727175	0.884177	0.155254
H565	H	0.604763	0.870101	0.035189
H566	H	0.920710	0.902966	0.159875
H567	H	0.788950	0.837012	0.024395
H568	H	0.835672	0.963522	0.145696
H569	H	0.975289	0.965628	0.202371
H570	H	0.854031	0.783656	0.079387
H571	H	0.766733	0.921208	0.188084
H572	H	0.565184	0.756761	0.117445
H573	H	0.621294	0.773592	0.102910
H574	H	0.666517	0.987969	0.026969
H575	H	0.539328	0.996240	0.192685
H576	H	0.753953	0.987290	0.215351
H577	H	0.934582	0.861178	0.126073
H578	H	0.876831	0.845276	0.111006
N225	N	0.717375	0.834044	0.048993
N226	N	0.903668	0.963507	0.175693
N227	N	0.783593	0.788013	0.051899
N228	N	0.845052	0.913677	0.175161
N229	N	0.605868	0.757778	0.115517
N230	N	0.893417	0.861153	0.123444
Ni57	Ni	0.749772	0.811237	0.084958
Ni58	Ni	0.875263	0.938839	0.208766
O225	O	0.688828	0.785320	0.093181
O226	O	0.733893	0.840742	0.118555
O227	O	0.810092	0.837754	0.094146
O228	O	0.938163	0.915002	0.220482
O229	O	0.813484	0.963981	0.218733
O230	O	0.861262	0.910502	0.243506
O231	O	0.764137	0.783042	0.120594
O232	O	0.890261	0.966111	0.244443
C697	C	0.640527	0.994398	0.384291
C698	C	0.513270	0.753333	0.259357
C699	C	0.729052	0.986019	0.405670
C700	C	0.601023	0.760796	0.283029
C701	C	0.608249	0.882665	0.383389
C702	C	0.624193	0.903910	0.404389
C703	C	0.621592	0.973797	0.405039
C704	C	0.993850	0.773759	0.279147
C705	C	0.707177	0.966231	0.425474
C706	C	0.578788	0.782520	0.300440
C707	C	0.543297	0.902359	0.431130
C708	C	0.524879	0.881474	0.411176
C709	C	0.556660	0.870960	0.386929
C710	C	0.588673	0.974523	0.491310
C711	C	0.537772	0.848715	0.366470
C712	C	0.657982	0.899636	0.491218
C713	C	0.941159	0.756231	0.387219
C714	C	0.823171	0.997429	0.261117
C715	C	0.983516	0.871120	0.258059
C716	C	0.502511	0.849948	0.277331
C717	C	0.920536	0.845003	0.301995
C718	C	0.899146	0.867433	0.284878
C719	C	0.931396	0.880433	0.261326
C720	C	0.962042	0.777693	0.366739
H579	H	0.663350	0.913189	0.401992
H580	H	0.543106	0.842470	0.275580
H581	H	0.579330	0.968528	0.404788
H582	H	0.731739	0.954901	0.442622
H583	H	0.604442	0.795080	0.315747
H584	H	0.518943	0.910592	0.450271
H585	H	0.865766	0.751335	0.361196
H586	H	0.984838	0.992400	0.494061
H587	H	0.771619	0.990222	0.407687
H588	H	0.890966	0.997691	0.294352
H589	H	0.951696	0.778981	0.279386
H590	H	0.895278	0.833446	0.317997
H591	H	0.985760	0.873048	0.415857
H592	H	0.672669	0.764197	0.307485
H593	H	0.680740	0.880108	0.360914
H594	H	0.630704	0.857621	0.347831
H595	H	0.803163	0.871019	0.483734
H596	H	0.750633	0.892709	0.471379
H597	H	0.534088	0.771876	0.411710
H598	H	0.704703	0.761171	0.475695
H599	H	0.829804	0.865562	0.310116
H600	H	0.834855	0.891798	0.279885
N231	N	0.654069	0.960871	0.425907
N232	N	0.526624	0.787914	0.299563
N233	N	0.592731	0.913015	0.427675
N234	N	0.971302	0.837452	0.299269
N235	N	0.652135	0.754515	0.288852
N236	N	0.641876	0.874091	0.361137
N237	N	0.763965	0.876433	0.484458
N238	N	0.519064	0.755839	0.424077
N239	N	0.741675	0.753049	0.479279
N240	N	0.850051	0.875538	0.292305
Ni59	Ni	0.623593	0.937457	0.460835
Ni60	Ni	0.500082	0.812694	0.332980
O233	O	0.566374	0.836632	0.345375
O234	O	0.686836	0.912435	0.470590
O235	O	0.560983	0.963156	0.468398
O236	O	0.610669	0.908917	0.494754
O237	O	0.511660	0.785014	0.369203
O238	O	0.636843	0.965650	0.495277
O239	O	0.934298	0.790184	0.345060
O240	O	0.989518	0.840083	0.368571
C721	C	0.696249	0.751053	0.634972
C722	C	0.567223	0.996315	0.510833
C723	C	0.730654	0.866076	0.505903
C724	C	0.748495	0.844827	0.526473
C725	C	0.665767	0.842167	0.550323
C726	C	0.645408	0.863287	0.531534
C727	C	0.677667	0.876251	0.509387
C728	C	0.717413	0.773461	0.616036
C729	C	0.891593	0.994372	0.630997
C730	C	0.773023	0.760131	0.504384
C731	C	0.971990	0.995856	0.664114
C732	C	0.852444	0.756523	0.538078
C733	C	0.859028	0.877083	0.637996
C734	C	0.878059	0.898664	0.657759
C735	C	0.873964	0.973205	0.650270
C736	C	0.755653	0.780800	0.525294
C737	C	0.951597	0.973981	0.682245
C738	C	0.831877	0.776520	0.558108
C739	C	0.791727	0.908678	0.673183
C740	C	0.769907	0.888035	0.654185
C741	C	0.802683	0.871926	0.635639
C742	C	0.842788	0.975434	0.741053
C743	C	0.781327	0.849758	0.615846
C744	C	0.910241	0.902506	0.741483
H601	H	0.510455	0.880514	0.741131
H602	H	0.717850	0.790913	0.520135
H603	H	0.641263	0.831662	0.567640
H604	H	0.727175	0.884177	0.655254
H605	H	0.604763	0.870101	0.535189
H606	H	0.920710	0.902966	0.659875
H607	H	0.788950	0.837012	0.524395
H608	H	0.835672	0.963522	0.645696
H609	H	0.975289	0.965628	0.702371
H610	H	0.854031	0.783656	0.579387
H611	H	0.766733	0.921208	0.688084
H612	H	0.565184	0.756761	0.617445
H613	H	0.621294	0.773592	0.602910
H614	H	0.666517	0.987969	0.526969
H615	H	0.539328	0.996240	0.692685
H616	H	0.753953	0.987290	0.715351
H617	H	0.934582	0.861178	0.626073
H618	H	0.876831	0.845276	0.611006
N241	N	0.717375	0.834044	0.548993
N242	N	0.903668	0.963507	0.675693
N243	N	0.783593	0.788013	0.551898
N244	N	0.845052	0.913677	0.675161
N245	N	0.605868	0.757778	0.615517
N246	N	0.893417	0.861153	0.623444
Ni61	Ni	0.749772	0.811237	0.584958
Ni62	Ni	0.875263	0.938839	0.708766
O241	O	0.688828	0.785320	0.593181
O242	O	0.733893	0.840742	0.618555
O243	O	0.810092	0.837754	0.594146
O244	O	0.938163	0.915002	0.720482
O245	O	0.813484	0.963981	0.718733
O246	O	0.861262	0.910502	0.743506
O247	O	0.764137	0.783042	0.620594
O248	O	0.890261	0.966111	0.744443
C745	C	0.640527	0.994398	0.884291
C746	C	0.513270	0.753333	0.759357
C747	C	0.729052	0.986019	0.905670
C748	C	0.601023	0.760796	0.783029
C749	C	0.608249	0.882665	0.883389
C750	C	0.624193	0.903910	0.904389
C751	C	0.621592	0.973797	0.905039
C752	C	0.993850	0.773759	0.779147
C753	C	0.707177	0.966231	0.925474
C754	C	0.578788	0.782520	0.800440
C755	C	0.543297	0.902359	0.931130
C756	C	0.524879	0.881474	0.911176
C757	C	0.556660	0.870960	0.886929
C758	C	0.588673	0.974523	0.991310
C759	C	0.537772	0.848715	0.866470
C760	C	0.657982	0.899636	0.991218
C761	C	0.941159	0.756231	0.887219
C762	C	0.823171	0.997429	0.761117
C763	C	0.983516	0.871120	0.758059
C764	C	0.502511	0.849948	0.777331
C765	C	0.920536	0.845003	0.801995
C766	C	0.899146	0.867433	0.784878
C767	C	0.931396	0.880433	0.761326
C768	C	0.962042	0.777693	0.866739
H619	H	0.663350	0.913189	0.901992
H620	H	0.543106	0.842470	0.775580
H621	H	0.579330	0.968528	0.904788
H622	H	0.731739	0.954901	0.942622
H623	H	0.604442	0.795080	0.815747
H624	H	0.518943	0.910592	0.950271
H625	H	0.865766	0.751335	0.861196
H626	H	0.984838	0.992400	0.994061
H627	H	0.771619	0.990222	0.907687
H628	H	0.890966	0.997691	0.794352
H629	H	0.951696	0.778981	0.779386
H630	H	0.895278	0.833446	0.817997
H631	H	0.985760	0.873048	0.915857
H632	H	0.672669	0.764197	0.807485
H633	H	0.680740	0.880108	0.860914
H634	H	0.630704	0.857621	0.847831
H635	H	0.803163	0.871019	0.983734
H636	H	0.750633	0.892709	0.971379
H637	H	0.534088	0.771876	0.911710
H638	H	0.704703	0.761171	0.975695
H639	H	0.829804	0.865562	0.810116
H640	H	0.834855	0.891798	0.779885
N247	N	0.654069	0.960871	0.925907
N248	N	0.526624	0.787914	0.799562
N249	N	0.592731	0.913015	0.927675
N250	N	0.971302	0.837452	0.799269
N251	N	0.652135	0.754515	0.788852
N252	N	0.641876	0.874091	0.861137
N253	N	0.763965	0.876433	0.984458
N254	N	0.519064	0.755839	0.924077
N255	N	0.741675	0.753049	0.979279
N256	N	0.850051	0.875538	0.792305
Ni63	Ni	0.623593	0.937457	0.960835
Ni64	Ni	0.500082	0.812694	0.832980
O249	O	0.566374	0.836632	0.845375
O250	O	0.686836	0.912435	0.970590
O251	O	0.560983	0.963156	0.968398
O252	O	0.610669	0.908917	0.994754
O253	O	0.511660	0.785014	0.869203
O254	O	0.636843	0.965650	0.995277
O255	O	0.934298	0.790184	0.845059
O256	O	0.989518	0.840083	0.868571

loop_
_geom_bond_atom_site_label_1
_geom_bond_atom_site_label_2
_geom_bond_distance
C1	C7	0.03483
C1	C97	0.05612
C1	N37	0.04163
C3	C9	0.03553
C3	H9	0.04282
C3	C97	0.04160
C4	C10	0.03563
C4	N5	0.05182
C5	C6	0.03386
C5	C13	0.05302
C5	N6	0.04122
C6	H1	0.04031
C6	N3	0.04019
C7	H3	0.04259
C7	N1	0.04071
C8	H11	0.04248
C8	C386	0.03444
C8	N130	0.04112
C9	H4	0.03203
C9	N1	0.05338
C10	H5	0.03241
C10	N2	0.05245
C11	C12	0.03426
C11	H6	0.03205
C11	N3	0.05069
C12	C13	0.04133
C13	C15	0.03564
C14	O3	0.03770
C14	O6	0.04914
C14	C26	0.03628
C15	O1	0.03754
C16	O2	0.03771
C16	O4	0.04834
C16	C31	0.03556
C17	C24	0.03628
C18	C106	0.05217
C18	C108	0.04082
C19	C23	0.05305
C19	C404	0.03436
C20	H2	0.04132
C21	C22	0.03541
C21	H12	0.03206
C21	N4	0.05140
C22	C23	0.04200
C22	N10	0.05031
C24	O7	0.03736
C24	O133	0.05022
H8	C506	0.03409
H10	C108	0.04002
H13	C396	0.04029
H14	N5	0.02937
H15	N6	0.03933
H16	N6	0.02394
H17	N7	0.03958
H18	N7	0.02477
H19	N8	0.02522
H20	N9	0.03802
H21	N10	0.02875
H22	N10	0.02549
N1	Ni1	0.05193
N2	Ni2	0.04935
N3	Ni1	0.05147
N4	C404	0.04014
N4	Ni34	0.05077
N7	C27	0.04095
N9	C34	0.04078
Ni1	O2	0.06871
Ni1	O3	0.06810
Ni1	O4	0.04618
Ni1	O6	0.04644
Ni2	O1	0.07156
Ni2	O5	0.04703
O6	H36	0.04882
O7	Ni34	0.07057
O8	C399	0.04907
O8	Ni34	0.04614
C25	C32	0.03617
C26	C122	0.05443
C26	C124	0.04295
C27	C28	0.03454
C27	C31	0.05407
C28	H29	0.04126
C28	N11	0.03990
C29	C30	0.03484
C29	H25	0.03179
C29	N11	0.05226
C30	C31	0.04122
C30	H27	0.04137
C32	O9	0.03847
C32	O15	0.04791
C33	C39	0.03362
C33	C137	0.05134
C33	H105	0.03328
C34	C40	0.03415
C35	C41	0.03497
C35	C137	0.04221
C35	N174	0.04914
C36	C42	0.03499
C37	C38	0.03491
C37	C45	0.05663
C37	N16	0.04060
C38	H28	0.04292
C38	N14	0.04022
C39	H30	0.03976
C39	N12	0.04028
C40	H24	0.03947
C40	N13	0.03925
C41	H31	0.03219
C41	N12	0.04950
C42	H32	0.03154
C42	N13	0.05002
C43	C44	0.03554
C43	H33	0.03168
C43	N14	0.05359
C44	C45	0.04096
C44	H26	0.04292
C45	C47	0.03660
C46	O13	0.03858
C46	O16	0.04850
C46	C66	0.03565
C47	O10	0.04836
C47	O11	0.03798
C48	O12	0.03711
C48	O14	0.04967
C48	C71	0.03645
H34	N15	0.04074
H35	N15	0.02544
H36	N43	0.02494
H37	N46	0.02914
H38	N47	0.02435
H39	N16	0.04125
H40	N16	0.02611
N11	Ni3	0.05351
N12	Ni4	0.05009
N13	Ni3	0.05269
N14	Ni4	0.05172
Ni3	O9	0.06673
Ni3	O10	0.04745
Ni3	O11	0.06653
Ni3	O15	0.04766
Ni4	O12	0.06828
Ni4	O13	0.06744
Ni4	O14	0.04697
Ni4	O16	0.04734
O14	H62	0.04869
C49	C55	0.03483
C49	C145	0.05612
C49	N53	0.04163
C51	C57	0.03553
C51	H49	0.04282
C51	C145	0.04160
C52	C58	0.03563
C52	N21	0.05182
C53	C54	0.03386
C53	C61	0.05302
C53	N22	0.04122
C54	H41	0.04031
C54	N19	0.04019
C55	H43	0.04259
C55	N17	0.04071
C56	H51	0.04248
C56	C434	0.03444
C56	N146	0.04112
C57	H44	0.03203
C57	N17	0.05338
C58	H45	0.03241
C58	N18	0.05245
C59	C60	0.03426
C59	H46	0.03205
C59	N19	0.05069
C60	C61	0.04133
C61	C63	0.03564
C62	O19	0.03770
C62	O22	0.04914
C62	C74	0.03628
C63	O17	0.03754
C64	O18	0.03771
C64	O20	0.04834
C64	C79	0.03556
C65	C72	0.03628
C66	C154	0.05217
C66	C156	0.04082
C67	C71	0.05305
C67	H343	0.03317
C67	C452	0.03436
C68	H42	0.04132
C69	C70	0.03541
C69	H52	0.03206
C69	N20	0.05140
C70	C71	0.04200
C70	N26	0.05031
C72	O23	0.03736
C72	O149	0.05022
H48	C554	0.03409
H50	C156	0.04002
H53	C444	0.04029
H54	N21	0.02937
H55	N22	0.03933
H56	N22	0.02394
H57	N23	0.03958
H58	N23	0.02477
H59	N24	0.02522
H60	N25	0.03802
H61	N26	0.02875
H62	N26	0.02549
N17	Ni5	0.05193
N18	Ni6	0.04935
N19	Ni5	0.05147
N20	C452	0.04014
N20	Ni38	0.05077
N23	C75	0.04095
N25	C82	0.04078
Ni5	O18	0.06871
Ni5	O19	0.06810
Ni5	O20	0.04618
Ni5	O22	0.04644
Ni6	O17	0.07156
Ni6	O21	0.04703
O22	H76	0.04882
O23	Ni38	0.07057
O24	C447	0.04907
O24	Ni38	0.04614
C73	C80	0.03617
C74	C170	0.05443
C74	C172	0.04295
C75	C76	0.03454
C75	C79	0.05407
C76	H69	0.04126
C76	N27	0.03990
C77	C78	0.03484
C77	H65	0.03179
C77	N27	0.05226
C78	C79	0.04122
C78	H67	0.04137
C80	O25	0.03847
C80	O31	0.04791
C81	C87	0.03362
C81	C185	0.05134
C81	H145	0.03328
C82	C88	0.03415
C83	C89	0.03497
C83	C185	0.04221
C83	N190	0.04914
C84	C90	0.03499
C85	C86	0.03491
C85	C93	0.05663
C85	N32	0.04060
C86	H68	0.04292
C86	N30	0.04022
C87	H70	0.03976
C87	N28	0.04028
C88	H64	0.03947
C88	N29	0.03925
C89	H71	0.03219
C89	N28	0.04950
C90	H72	0.03154
C90	N29	0.05002
C91	C92	0.03554
C91	H73	0.03168
C91	N30	0.05359
C92	C93	0.04096
C92	H66	0.04292
C93	C95	0.03660
C94	O29	0.03858
C94	O32	0.04850
C95	O26	0.04836
C95	O27	0.03798
C96	O28	0.03711
C96	O30	0.04967
H74	N31	0.04074
H75	N31	0.02544
H76	N59	0.02494
H77	N62	0.02914
H78	N63	0.02435
H79	N32	0.04125
H80	N32	0.02611
N27	Ni7	0.05351
N28	Ni8	0.05009
N29	Ni7	0.05269
N30	Ni8	0.05172
Ni7	O25	0.06673
Ni7	O26	0.04745
Ni7	O27	0.06653
Ni7	O31	0.04766
Ni8	O28	0.06828
Ni8	O29	0.06744
Ni8	O30	0.04697
Ni8	O32	0.04734
C97	C104	0.03617
C98	C194	0.05443
C98	C196	0.04295
C99	C100	0.03454
C99	C103	0.05407
C100	H87	0.04126
C100	N33	0.03990
C101	C102	0.03484
C101	H83	0.03179
C101	N33	0.05226
C102	C103	0.04122
C102	H85	0.04137
C104	O33	0.03847
C104	O39	0.04791
C105	C111	0.03362
C105	C209	0.05134
C105	H167	0.03328
C106	C112	0.03415
C107	C113	0.03497
C107	C209	0.04221
C107	N200	0.04914
C108	C114	0.03499
C109	C110	0.03491
C109	C117	0.05663
C109	N38	0.04060
C110	H86	0.04292
C110	N36	0.04022
C111	H88	0.03976
C111	N34	0.04028
C112	H82	0.03947
C112	N35	0.03925
C113	H89	0.03219
C113	N34	0.04950
C114	H90	0.03154
C114	N35	0.05002
C115	C116	0.03554
C115	H91	0.03168
C115	N36	0.05359
C116	C117	0.04096
C116	H84	0.04292
C117	C119	0.03660
C118	O37	0.03858
C118	O40	0.04850
C118	C138	0.03565
C119	O34	0.04836
C119	O35	0.03798
C120	O36	0.03711
C120	O38	0.04967
C120	C143	0.03645
H92	N37	0.04074
H93	N37	0.02544
H94	N69	0.02494
H95	N72	0.02914
H96	N73	0.02435
H97	N38	0.04125
H98	N38	0.02611
N33	Ni9	0.05351
N34	Ni10	0.05009
N35	Ni9	0.05269
N36	Ni10	0.05172
Ni9	O33	0.06673
Ni9	O34	0.04745
Ni9	O35	0.06653
Ni9	O39	0.04766
Ni10	O36	0.06828
Ni10	O37	0.06744
Ni10	O38	0.04697
Ni10	O40	0.04734
O38	H120	0.04869
C121	C127	0.03483
C121	C217	0.05612
C121	N79	0.04163
C123	C129	0.03553
C123	H107	0.04282
C123	C217	0.04160
C124	C130	0.03563
C124	N43	0.05182
C125	C126	0.03386
C125	C133	0.05302
C125	N44	0.04122
C126	H99	0.04031
C126	N41	0.04019
C127	H101	0.04259
C127	N39	0.04071
C128	H109	0.04248
C128	C506	0.03444
C128	N168	0.04112
C129	H102	0.03203
C129	N39	0.05338
C130	H103	0.03241
C130	N40	0.05245
C131	C132	0.03426
C131	H104	0.03205
C131	N41	0.05069
C132	C133	0.04133
C133	C135	0.03564
C134	O43	0.03770
C134	O46	0.04914
C134	C146	0.03628
C135	O41	0.03754
C136	O42	0.03771
C136	O44	0.04834
C136	C151	0.03556
C137	C144	0.03628
C138	C226	0.05217
C138	C228	0.04082
C139	C143	0.05305
C139	H401	0.03317
C139	C524	0.03436
C140	H100	0.04132
C141	C142	0.03541
C141	H110	0.03206
C141	N42	0.05140
C142	C143	0.04200
C142	N48	0.05031
C144	O47	0.03736
C144	O173	0.05022
H106	C626	0.03409
H108	C228	0.04002
H111	C516	0.04029
H112	N43	0.02937
H113	N44	0.03933
H114	N44	0.02394
H115	N45	0.03958
H116	N45	0.02477
H117	N46	0.02522
H118	N47	0.03802
H119	N48	0.02875
H120	N48	0.02549
N39	Ni11	0.05193
N40	Ni12	0.04935
N41	Ni11	0.05147
N42	C524	0.04014
N42	Ni44	0.05077
N45	C147	0.04095
N47	C154	0.04078
Ni11	O42	0.06871
Ni11	O43	0.06810
Ni11	O44	0.04618
Ni11	O46	0.04644
Ni12	O41	0.07156
Ni12	O45	0.04703
O46	H134	0.04882
O47	Ni44	0.07057
O48	C519	0.04907
O48	Ni44	0.04614
C145	C152	0.03617
C146	C242	0.05443
C146	C244	0.04295
C147	C148	0.03454
C147	C151	0.05407
C148	H127	0.04126
C148	N49	0.03990
C149	C150	0.03484
C149	H123	0.03179
C149	N49	0.05226
C150	C151	0.04122
C150	H125	0.04137
C152	O49	0.03847
C152	O55	0.04791
C153	C159	0.03362
C153	C257	0.05134
C153	H207	0.03328
C154	C160	0.03415
C155	C161	0.03497
C155	C257	0.04221
C155	N216	0.04914
C156	C162	0.03499
C157	C158	0.03491
C157	C165	0.05663
C157	N54	0.04060
C158	H126	0.04292
C158	N52	0.04022
C159	H128	0.03976
C159	N50	0.04028
C160	H122	0.03947
C160	N51	0.03925
C161	H129	0.03219
C161	N50	0.04950
C162	H130	0.03154
C162	N51	0.05002
C163	C164	0.03554
C163	H131	0.03168
C163	N52	0.05359
C164	C165	0.04096
C164	H124	0.04292
C165	C167	0.03660
C166	O53	0.03858
C166	O56	0.04850
C166	C186	0.03565
C167	O50	0.04836
C167	O51	0.03798
C168	O52	0.03711
C168	O54	0.04967
C168	C191	0.03645
H132	N53	0.04074
H133	N53	0.02544
H134	N85	0.02494
H135	N88	0.02914
H136	N89	0.02435
H137	N54	0.04125
H138	N54	0.02611
N49	Ni13	0.05351
N50	Ni14	0.05009
N51	Ni13	0.05269
N52	Ni14	0.05172
Ni13	O49	0.06673
Ni13	O50	0.04745
Ni13	O51	0.06653
Ni13	O55	0.04766
Ni14	O52	0.06828
Ni14	O53	0.06744
Ni14	O54	0.04697
Ni14	O56	0.04734
O54	H160	0.04869
C169	C175	0.03483
C169	C265	0.05612
C169	N95	0.04163
C171	C177	0.03553
C171	H147	0.04282
C171	C265	0.04160
C172	C178	0.03563
C172	N59	0.05182
C173	C174	0.03386
C173	C181	0.05302
C173	N60	0.04122
C174	H139	0.04031
C174	N57	0.04019
C175	H141	0.04259
C175	N55	0.04071
C176	H149	0.04248
C176	C554	0.03444
C176	N184	0.04112
C177	H142	0.03203
C177	N55	0.05338
C178	H143	0.03241
C178	N56	0.05245
C179	C180	0.03426
C179	H144	0.03205
C179	N57	0.05069
C180	C181	0.04133
C181	C183	0.03564
C182	O59	0.03770
C182	O62	0.04914
C183	O57	0.03754
C184	O58	0.03771
C184	O60	0.04834
C185	C192	0.03628
C186	C274	0.05217
C186	C276	0.04082
C187	C191	0.05305
C187	H441	0.03317
C187	C572	0.03436
C188	H140	0.04132
C189	C190	0.03541
C189	H150	0.03206
C189	N58	0.05140
C190	C191	0.04200
C190	N64	0.05031
C192	O63	0.03736
C192	O189	0.05022
H148	C276	0.04002
H151	C564	0.04029
H152	N59	0.02937
H153	N60	0.03933
H154	N60	0.02394
H155	N61	0.03958
H156	N61	0.02477
H157	N62	0.02522
H158	N63	0.03802
H159	N64	0.02875
H160	N64	0.02549
N55	Ni15	0.05193
N56	Ni16	0.04935
N57	Ni15	0.05147
N58	C572	0.04014
N58	Ni48	0.05077
Ni15	O58	0.06871
Ni15	O59	0.06810
Ni15	O60	0.04618
Ni15	O62	0.04644
Ni16	O57	0.07156
Ni16	O61	0.04703
O63	Ni48	0.07057
O64	C567	0.04907
O64	Ni48	0.04614
C193	C199	0.03483
C193	C289	0.05612
C193	N101	0.04163
C195	C201	0.03553
C195	H169	0.04282
C195	C289	0.04160
C196	C202	0.03563
C196	N69	0.05182
C197	C198	0.03386
C197	C205	0.05302
C197	N70	0.04122
C198	H161	0.04031
C198	N67	0.04019
C199	H163	0.04259
C199	N65	0.04071
C200	H171	0.04248
C200	C578	0.03444
C200	N194	0.04112
C201	H164	0.03203
C201	N65	0.05338
C202	H165	0.03241
C202	N66	0.05245
C203	C204	0.03426
C203	H166	0.03205
C203	N67	0.05069
C204	C205	0.04133
C205	C207	0.03564
C206	O67	0.03770
C206	O70	0.04914
C206	C218	0.03628
C207	O65	0.03754
C208	O66	0.03771
C208	O68	0.04834
C208	C223	0.03556
C209	C216	0.03628
C210	C298	0.05217
C210	C300	0.04082
C211	C215	0.05305
C211	C596	0.03436
C212	H162	0.04132
C213	C214	0.03541
C213	H172	0.03206
C213	N68	0.05140
C214	C215	0.04200
C214	N74	0.05031
C216	O71	0.03736
C216	O197	0.05022
H168	C698	0.03409
H170	C300	0.04002
H173	C588	0.04029
H174	N69	0.02937
H175	N70	0.03933
H176	N70	0.02394
H177	N71	0.03958
H178	N71	0.02477
H179	N72	0.02522
H180	N73	0.03802
H181	N74	0.02875
H182	N74	0.02549
N65	Ni17	0.05193
N66	Ni18	0.04935
N67	Ni17	0.05147
N68	C596	0.04014
N68	Ni50	0.05077
N71	C219	0.04095
N73	C226	0.04078
Ni17	O66	0.06871
Ni17	O67	0.06810
Ni17	O68	0.04618
Ni17	O70	0.04644
Ni18	O65	0.07156
Ni18	O69	0.04703
O70	H196	0.04882
O71	Ni50	0.07057
O72	C591	0.04907
O72	Ni50	0.04614
C217	C224	0.03617
C218	C314	0.05443
C218	C316	0.04295
C219	C220	0.03454
C219	C223	0.05407
C220	H189	0.04126
C220	N75	0.03990
C221	C222	0.03484
C221	H185	0.03179
C221	N75	0.05226
C222	C223	0.04122
C222	H187	0.04137
C224	O73	0.03847
C224	O79	0.04791
C225	C231	0.03362
C225	C329	0.05134
C225	H265	0.03328
C226	C232	0.03415
C227	C233	0.03497
C227	C329	0.04221
C227	N238	0.04914
C228	C234	0.03499
C229	C230	0.03491
C229	C237	0.05663
C229	N80	0.04060
C230	H188	0.04292
C230	N78	0.04022
C231	H190	0.03976
C231	N76	0.04028
C232	H184	0.03947
C232	N77	0.03925
C233	H191	0.03219
C233	N76	0.04950
C234	H192	0.03154
C234	N77	0.05002
C235	C236	0.03554
C235	H193	0.03168
C235	N78	0.05359
C236	C237	0.04096
C236	H186	0.04292
C237	C239	0.03660
C238	O77	0.03858
C238	O80	0.04850
C238	C258	0.03565
C239	O74	0.04836
C239	O75	0.03798
C240	O76	0.03711
C240	O78	0.04967
C240	C263	0.03645
H194	N79	0.04074
H195	N79	0.02544
H196	N107	0.02494
H197	N110	0.02914
H198	N111	0.02435
H199	N80	0.04125
H200	N80	0.02611
N75	Ni19	0.05351
N76	Ni20	0.05009
N77	Ni19	0.05269
N78	Ni20	0.05172
Ni19	O73	0.06673
Ni19	O74	0.04745
Ni19	O75	0.06653
Ni19	O79	0.04766
Ni20	O76	0.06828
Ni20	O77	0.06744
Ni20	O78	0.04697
Ni20	O80	0.04734
O78	H222	0.04869
C241	C247	0.03483
C241	C337	0.05612
C241	N117	0.04163
C243	C249	0.03553
C243	H209	0.04282
C243	C337	0.04160
C244	C250	0.03563
C244	N85	0.05182
C245	C246	0.03386
C245	C253	0.05302
C245	N86	0.04122
C246	H201	0.04031
C246	N83	0.04019
C247	H203	0.04259
C247	N81	0.04071
C248	H211	0.04248
C248	C626	0.03444
C248	N210	0.04112
C249	H204	0.03203
C249	N81	0.05338
C250	H205	0.03241
C250	N82	0.05245
C251	C252	0.03426
C251	H206	0.03205
C251	N83	0.05069
C252	C253	0.04133
C253	C255	0.03564
C254	O83	0.03770
C254	O86	0.04914
C254	C266	0.03628
C255	O81	0.03754
C256	O82	0.03771
C256	O84	0.04834
C256	C271	0.03556
C257	C264	0.03628
C258	C346	0.05217
C258	C348	0.04082
C259	C263	0.05305
C259	H503	0.03317
C259	C644	0.03436
C260	H202	0.04132
C261	C262	0.03541
C261	H212	0.03206
C261	N84	0.05140
C262	C263	0.04200
C262	N90	0.05031
C264	O87	0.03736
C264	O213	0.05022
H208	C746	0.03409
H210	C348	0.04002
H213	C636	0.04029
H214	N85	0.02937
H215	N86	0.03933
H216	N86	0.02394
H217	N87	0.03958
H218	N87	0.02477
H219	N88	0.02522
H220	N89	0.03802
H221	N90	0.02875
H222	N90	0.02549
N81	Ni21	0.05193
N82	Ni22	0.04935
N83	Ni21	0.05147
N84	C644	0.04014
N84	Ni54	0.05077
N87	C267	0.04095
N89	C274	0.04078
Ni21	O82	0.06871
Ni21	O83	0.06810
Ni21	O84	0.04618
Ni21	O86	0.04644
Ni22	O81	0.07156
Ni22	O85	0.04703
O86	H236	0.04882
O87	Ni54	0.07057
O88	C639	0.04907
O88	Ni54	0.04614
C265	C272	0.03617
C266	C362	0.05443
C266	C364	0.04295
C267	C268	0.03454
C267	C271	0.05407
C268	H229	0.04126
C268	N91	0.03990
C269	C270	0.03484
C269	H225	0.03179
C269	N91	0.05226
C270	C271	0.04122
C270	H227	0.04137
C272	O89	0.03847
C272	O95	0.04791
C273	C279	0.03362
C273	C377	0.05134
C273	H305	0.03328
C274	C280	0.03415
C275	C281	0.03497
C275	C377	0.04221
C275	N254	0.04914
C276	C282	0.03499
C277	C278	0.03491
C277	C285	0.05663
C277	N96	0.04060
C278	H228	0.04292
C278	N94	0.04022
C279	H230	0.03976
C279	N92	0.04028
C280	H224	0.03947
C280	N93	0.03925
C281	H231	0.03219
C281	N92	0.04950
C282	H232	0.03154
C282	N93	0.05002
C283	C284	0.03554
C283	H233	0.03168
C283	N94	0.05359
C284	C285	0.04096
C284	H226	0.04292
C285	C287	0.03660
C286	O93	0.03858
C286	O96	0.04850
C287	O90	0.04836
C287	O91	0.03798
C288	O92	0.03711
C288	O94	0.04967
H234	N95	0.04074
H235	N95	0.02544
H236	N123	0.02494
H237	N126	0.02914
H238	N127	0.02435
H239	N96	0.04125
H240	N96	0.02611
N91	Ni23	0.05351
N92	Ni24	0.05009
N93	Ni23	0.05269
N94	Ni24	0.05172
Ni23	O89	0.06673
Ni23	O90	0.04745
Ni23	O91	0.06653
Ni23	O95	0.04766
Ni24	O92	0.06828
Ni24	O93	0.06744
Ni24	O94	0.04697
Ni24	O96	0.04734
C289	C296	0.03617
C291	C292	0.03454
C291	C295	0.05407
C292	H247	0.04126
C292	N97	0.03990
C293	C294	0.03484
C293	H243	0.03179
C293	N97	0.05226
C294	C295	0.04122
C294	H245	0.04137
C296	O97	0.03847
C296	O103	0.04791
C297	C303	0.03362
C298	C304	0.03415
C299	C305	0.03497
C300	C306	0.03499
C301	C302	0.03491
C301	C309	0.05663
C301	N102	0.04060
C302	H246	0.04292
C302	N100	0.04022
C303	H248	0.03976
C303	N98	0.04028
C304	H242	0.03947
C304	N99	0.03925
C305	H249	0.03219
C305	N98	0.04950
C306	H250	0.03154
C306	N99	0.05002
C307	C308	0.03554
C307	H251	0.03168
C307	N100	0.05359
C308	C309	0.04096
C308	H244	0.04292
C309	C311	0.03660
C310	O101	0.03858
C310	O104	0.04850
C310	C330	0.03565
C311	O98	0.04836
C311	O99	0.03798
C312	O100	0.03711
C312	O102	0.04967
C312	C335	0.03645
H252	N101	0.04074
H253	N101	0.02544
H257	N102	0.04125
H258	N102	0.02611
N97	Ni25	0.05351
N98	Ni26	0.05009
N99	Ni25	0.05269
N100	Ni26	0.05172
Ni25	O97	0.06673
Ni25	O98	0.04745
Ni25	O99	0.06653
Ni25	O103	0.04766
Ni26	O100	0.06828
Ni26	O101	0.06744
Ni26	O102	0.04697
Ni26	O104	0.04734
O102	H280	0.04869
C313	C319	0.03483
C315	C321	0.03553
C315	H267	0.04282
C316	C322	0.03563
C316	N107	0.05182
C317	C318	0.03386
C317	C325	0.05302
C317	N108	0.04122
C318	H259	0.04031
C318	N105	0.04019
C319	H261	0.04259
C319	N103	0.04071
C320	H269	0.04248
C320	C698	0.03444
C320	N232	0.04112
C321	H262	0.03203
C321	N103	0.05338
C322	H263	0.03241
C322	N104	0.05245
C323	C324	0.03426
C323	H264	0.03205
C323	N105	0.05069
C324	C325	0.04133
C325	C327	0.03564
C326	O107	0.03770
C326	O110	0.04914
C326	C338	0.03628
C327	O105	0.03754
C328	O106	0.03771
C328	O108	0.04834
C328	C343	0.03556
C329	C336	0.03628
C331	C335	0.05305
C331	H561	0.03317
C331	C716	0.03436
C332	H260	0.04132
C333	C334	0.03541
C333	H270	0.03206
C333	N106	0.05140
C334	C335	0.04200
C334	N112	0.05031
C336	O111	0.03736
C336	O237	0.05022
H271	C708	0.04029
H272	N107	0.02937
H273	N108	0.03933
H274	N108	0.02394
H275	N109	0.03958
H276	N109	0.02477
H277	N110	0.02522
H278	N111	0.03802
H279	N112	0.02875
H280	N112	0.02549
N103	Ni27	0.05193
N104	Ni28	0.04935
N105	Ni27	0.05147
N106	C716	0.04014
N106	Ni60	0.05077
N109	C339	0.04095
N111	C346	0.04078
Ni27	O106	0.06871
Ni27	O107	0.06810
Ni27	O108	0.04618
Ni27	O110	0.04644
Ni28	O105	0.07156
Ni28	O109	0.04703
O110	H294	0.04882
O111	Ni60	0.07057
O112	C711	0.04907
O112	Ni60	0.04614
C337	C344	0.03617
C339	C340	0.03454
C339	C343	0.05407
C340	H287	0.04126
C340	N113	0.03990
C341	C342	0.03484
C341	H283	0.03179
C341	N113	0.05226
C342	C343	0.04122
C342	H285	0.04137
C344	O113	0.03847
C344	O119	0.04791
C345	C351	0.03362
C346	C352	0.03415
C347	C353	0.03497
C348	C354	0.03499
C349	C350	0.03491
C349	C357	0.05663
C349	N118	0.04060
C350	H286	0.04292
C350	N116	0.04022
C351	H288	0.03976
C351	N114	0.04028
C352	H282	0.03947
C352	N115	0.03925
C353	H289	0.03219
C353	N114	0.04950
C354	H290	0.03154
C354	N115	0.05002
C355	C356	0.03554
C355	H291	0.03168
C355	N116	0.05359
C356	C357	0.04096
C356	H284	0.04292
C357	C359	0.03660
C358	O117	0.03858
C358	O120	0.04850
C358	C378	0.03565
C359	O114	0.04836
C359	O115	0.03798
C360	O116	0.03711
C360	O118	0.04967
C360	C383	0.03645
H292	N117	0.04074
H293	N117	0.02544
H297	N118	0.04125
H298	N118	0.02611
N113	Ni29	0.05351
N114	Ni30	0.05009
N115	Ni29	0.05269
N116	Ni30	0.05172
Ni29	O113	0.06673
Ni29	O114	0.04745
Ni29	O115	0.06653
Ni29	O119	0.04766
Ni30	O116	0.06828
Ni30	O117	0.06744
Ni30	O118	0.04697
Ni30	O120	0.04734
O118	H320	0.04869
C361	C367	0.03483
C363	C369	0.03553
C363	H307	0.04282
C364	C370	0.03563
C364	N123	0.05182
C365	C366	0.03386
C365	C373	0.05302
C365	N124	0.04122
C366	H299	0.04031
C366	N121	0.04019
C367	H301	0.04259
C367	N119	0.04071
C368	H309	0.04248
C368	C746	0.03444
C368	N248	0.04112
C369	H302	0.03203
C369	N119	0.05338
C370	H303	0.03241
C370	N120	0.05245
C371	C372	0.03426
C371	H304	0.03205
C371	N121	0.05069
C372	C373	0.04133
C373	C375	0.03564
C374	O123	0.03770
C374	O126	0.04914
C375	O121	0.03754
C376	O122	0.03771
C376	O124	0.04834
C377	C384	0.03628
C379	C383	0.05305
C379	H601	0.03317
C379	C764	0.03436
C380	H300	0.04132
C381	C382	0.03541
C381	H310	0.03206
C381	N122	0.05140
C382	C383	0.04200
C382	N128	0.05031
C384	O127	0.03736
C384	O253	0.05022
H311	C756	0.04029
H312	N123	0.02937
H313	N124	0.03933
H314	N124	0.02394
H315	N125	0.03958
H316	N125	0.02477
H317	N126	0.02522
H318	N127	0.03802
H319	N128	0.02875
H320	N128	0.02549
N119	Ni31	0.05193
N120	Ni32	0.04935
N121	Ni31	0.05147
N122	C764	0.04014
N122	Ni64	0.05077
Ni31	O122	0.06871
Ni31	O123	0.06810
Ni31	O124	0.04618
Ni31	O126	0.04644
Ni32	O121	0.07156
Ni32	O125	0.04703
O127	Ni64	0.07057
O128	C759	0.04907
O128	Ni64	0.04614
C385	C391	0.03483
C385	C481	0.05612
C385	N165	0.04163
C387	C393	0.03553
C387	H329	0.04282
C387	C481	0.04160
C388	C394	0.03563
C388	N133	0.05182
C389	C390	0.03386
C389	C397	0.05302
C389	N134	0.04122
C390	H321	0.04031
C390	N131	0.04019
C391	H323	0.04259
C391	N129	0.04071
C392	H331	0.04248
C393	H324	0.03203
C393	N129	0.05338
C394	H325	0.03241
C394	N130	0.05245
C395	C396	0.03426
C395	H326	0.03205
C395	N131	0.05069
C396	C397	0.04133
C397	C399	0.03564
C398	O131	0.03770
C398	O134	0.04914
C398	C410	0.03628
C399	O129	0.03754
C400	O130	0.03771
C400	O132	0.04834
C400	C415	0.03556
C401	C408	0.03628
C402	C490	0.05217
C402	C492	0.04082
C403	C407	0.05305
C404	H322	0.04132
C405	C406	0.03541
C405	H332	0.03206
C405	N132	0.05140
C406	C407	0.04200
C406	N138	0.05031
C408	O135	0.03736
H330	C492	0.04002
H334	N133	0.02937
H335	N134	0.03933
H336	N134	0.02394
H337	N135	0.03958
H338	N135	0.02477
H339	N136	0.02522
H340	N137	0.03802
H341	N138	0.02875
H342	N138	0.02549
N129	Ni33	0.05193
N130	Ni34	0.04935
N131	Ni33	0.05147
N135	C411	0.04095
N137	C418	0.04078
Ni33	O130	0.06871
Ni33	O131	0.06810
Ni33	O132	0.04618
Ni33	O134	0.04644
Ni34	O129	0.07156
Ni34	O133	0.04703
O134	H356	0.04882
C409	C416	0.03617
C410	C506	0.05443
C410	C508	0.04295
C411	C412	0.03454
C411	C415	0.05407
C412	H349	0.04126
C412	N139	0.03990
C413	C414	0.03484
C413	H345	0.03179
C413	N139	0.05226
C414	C415	0.04122
C414	H347	0.04137
C416	O137	0.03847
C416	O143	0.04791
C417	C423	0.03362
C417	C521	0.05134
C417	H425	0.03328
C418	C424	0.03415
C419	C425	0.03497
C419	C521	0.04221
C420	C426	0.03499
C421	C422	0.03491
C421	C429	0.05663
C421	N144	0.04060
C422	H348	0.04292
C422	N142	0.04022
C423	H350	0.03976
C423	N140	0.04028
C424	H344	0.03947
C424	N141	0.03925
C425	H351	0.03219
C425	N140	0.04950
C426	H352	0.03154
C426	N141	0.05002
C427	C428	0.03554
C427	H353	0.03168
C427	N142	0.05359
C428	C429	0.04096
C428	H346	0.04292
C429	C431	0.03660
C430	O141	0.03858
C430	O144	0.04850
C430	C450	0.03565
C431	O138	0.04836
C431	O139	0.03798
C432	O140	0.03711
C432	O142	0.04967
C432	C455	0.03645
H354	N143	0.04074
H355	N143	0.02544
H356	N171	0.02494
H357	N174	0.02914
H358	N175	0.02435
H359	N144	0.04125
H360	N144	0.02611
N139	Ni35	0.05351
N140	Ni36	0.05009
N141	Ni35	0.05269
N142	Ni36	0.05172
Ni35	O137	0.06673
Ni35	O138	0.04745
Ni35	O139	0.06653
Ni35	O143	0.04766
Ni36	O140	0.06828
Ni36	O141	0.06744
Ni36	O142	0.04697
Ni36	O144	0.04734
O142	H382	0.04869
C433	C439	0.03483
C433	C529	0.05612
C433	N181	0.04163
C435	C441	0.03553
C435	H369	0.04282
C435	C529	0.04160
C436	C442	0.03563
C436	N149	0.05182
C437	C438	0.03386
C437	C445	0.05302
C437	N150	0.04122
C438	H361	0.04031
C438	N147	0.04019
C439	H363	0.04259
C439	N145	0.04071
C440	H371	0.04248
C441	H364	0.03203
C441	N145	0.05338
C442	H365	0.03241
C442	N146	0.05245
C443	C444	0.03426
C443	H366	0.03205
C443	N147	0.05069
C444	C445	0.04133
C445	C447	0.03564
C446	O147	0.03770
C446	O150	0.04914
C446	C458	0.03628
C447	O145	0.03754
C448	O146	0.03771
C448	O148	0.04834
C448	C463	0.03556
C449	C456	0.03628
C450	C538	0.05217
C450	C540	0.04082
C451	C455	0.05305
C452	H362	0.04132
C453	C454	0.03541
C453	H372	0.03206
C453	N148	0.05140
C454	C455	0.04200
C454	N154	0.05031
C456	O151	0.03736
H370	C540	0.04002
H374	N149	0.02937
H375	N150	0.03933
H376	N150	0.02394
H377	N151	0.03958
H378	N151	0.02477
H379	N152	0.02522
H380	N153	0.03802
H381	N154	0.02875
H382	N154	0.02549
N145	Ni37	0.05193
N146	Ni38	0.04935
N147	Ni37	0.05147
N151	C459	0.04095
N153	C466	0.04078
Ni37	O146	0.06871
Ni37	O147	0.06810
Ni37	O148	0.04618
Ni37	O150	0.04644
Ni38	O145	0.07156
Ni38	O149	0.04703
O150	H396	0.04882
C457	C464	0.03617
C458	C554	0.05443
C458	C556	0.04295
C459	C460	0.03454
C459	C463	0.05407
C460	H389	0.04126
C460	N155	0.03990
C461	C462	0.03484
C461	H385	0.03179
C461	N155	0.05226
C462	C463	0.04122
C462	H387	0.04137
C464	O153	0.03847
C464	O159	0.04791
C465	C471	0.03362
C465	C569	0.05134
C465	H465	0.03328
C466	C472	0.03415
C467	C473	0.03497
C467	C569	0.04221
C468	C474	0.03499
C469	C470	0.03491
C469	C477	0.05663
C469	N160	0.04060
C470	H388	0.04292
C470	N158	0.04022
C471	H390	0.03976
C471	N156	0.04028
C472	H384	0.03947
C472	N157	0.03925
C473	H391	0.03219
C473	N156	0.04950
C474	H392	0.03154
C474	N157	0.05002
C475	C476	0.03554
C475	H393	0.03168
C475	N158	0.05359
C476	C477	0.04096
C476	H386	0.04292
C477	C479	0.03660
C478	O157	0.03858
C478	O160	0.04850
C479	O154	0.04836
C479	O155	0.03798
C480	O156	0.03711
C480	O158	0.04967
H394	N159	0.04074
H395	N159	0.02544
H396	N187	0.02494
H397	N190	0.02914
H398	N191	0.02435
H399	N160	0.04125
H400	N160	0.02611
N155	Ni39	0.05351
N156	Ni40	0.05009
N157	Ni39	0.05269
N158	Ni40	0.05172
Ni39	O153	0.06673
Ni39	O154	0.04745
Ni39	O155	0.06653
Ni39	O159	0.04766
Ni40	O156	0.06828
Ni40	O157	0.06744
Ni40	O158	0.04697
Ni40	O160	0.04734
C481	C488	0.03617
C482	C578	0.05443
C482	C580	0.04295
C483	C484	0.03454
C483	C487	0.05407
C484	H407	0.04126
C484	N161	0.03990
C485	C486	0.03484
C485	H403	0.03179
C485	N161	0.05226
C486	C487	0.04122
C486	H405	0.04137
C488	O161	0.03847
C488	O167	0.04791
C489	C495	0.03362
C489	C593	0.05134
C489	H487	0.03328
C490	C496	0.03415
C491	C497	0.03497
C491	C593	0.04221
C492	C498	0.03499
C493	C494	0.03491
C493	C501	0.05663
C493	N166	0.04060
C494	H406	0.04292
C494	N164	0.04022
C495	H408	0.03976
C495	N162	0.04028
C496	H402	0.03947
C496	N163	0.03925
C497	H409	0.03219
C497	N162	0.04950
C498	H410	0.03154
C498	N163	0.05002
C499	C500	0.03554
C499	H411	0.03168
C499	N164	0.05359
C500	C501	0.04096
C500	H404	0.04292
C501	C503	0.03660
C502	O165	0.03858
C502	O168	0.04850
C502	C522	0.03565
C503	O162	0.04836
C503	O163	0.03798
C504	O164	0.03711
C504	O166	0.04967
C504	C527	0.03645
H412	N165	0.04074
H413	N165	0.02544
H414	N197	0.02494
H415	N200	0.02914
H416	N201	0.02435
H417	N166	0.04125
H418	N166	0.02611
N161	Ni41	0.05351
N162	Ni42	0.05009
N163	Ni41	0.05269
N164	Ni42	0.05172
Ni41	O161	0.06673
Ni41	O162	0.04745
Ni41	O163	0.06653
Ni41	O167	0.04766
Ni42	O164	0.06828
Ni42	O165	0.06744
Ni42	O166	0.04697
Ni42	O168	0.04734
O166	H440	0.04869
C505	C511	0.03483
C505	C601	0.05612
C505	N207	0.04163
C507	C513	0.03553
C507	H427	0.04282
C507	C601	0.04160
C508	C514	0.03563
C508	N171	0.05182
C509	C510	0.03386
C509	C517	0.05302
C509	N172	0.04122
C510	H419	0.04031
C510	N169	0.04019
C511	H421	0.04259
C511	N167	0.04071
C512	H429	0.04248
C513	H422	0.03203
C513	N167	0.05338
C514	H423	0.03241
C514	N168	0.05245
C515	C516	0.03426
C515	H424	0.03205
C515	N169	0.05069
C516	C517	0.04133
C517	C519	0.03564
C518	O171	0.03770
C518	O174	0.04914
C518	C530	0.03628
C519	O169	0.03754
C520	O170	0.03771
C520	O172	0.04834
C520	C535	0.03556
C521	C528	0.03628
C522	C610	0.05217
C522	C612	0.04082
C523	C527	0.05305
C524	H420	0.04132
C525	C526	0.03541
C525	H430	0.03206
C525	N170	0.05140
C526	C527	0.04200
C526	N176	0.05031
C528	O175	0.03736
H428	C612	0.04002
H432	N171	0.02937
H433	N172	0.03933
H434	N172	0.02394
H435	N173	0.03958
H436	N173	0.02477
H437	N174	0.02522
H438	N175	0.03802
H439	N176	0.02875
H440	N176	0.02549
N167	Ni43	0.05193
N168	Ni44	0.04935
N169	Ni43	0.05147
N173	C531	0.04095
N175	C538	0.04078
Ni43	O170	0.06871
Ni43	O171	0.06810
Ni43	O172	0.04618
Ni43	O174	0.04644
Ni44	O169	0.07156
Ni44	O173	0.04703
O174	H454	0.04882
C529	C536	0.03617
C530	C626	0.05443
C530	C628	0.04295
C531	C532	0.03454
C531	C535	0.05407
C532	H447	0.04126
C532	N177	0.03990
C533	C534	0.03484
C533	H443	0.03179
C533	N177	0.05226
C534	C535	0.04122
C534	H445	0.04137
C536	O177	0.03847
C536	O183	0.04791
C537	C543	0.03362
C537	C641	0.05134
C537	H527	0.03328
C538	C544	0.03415
C539	C545	0.03497
C539	C641	0.04221
C540	C546	0.03499
C541	C542	0.03491
C541	C549	0.05663
C541	N182	0.04060
C542	H446	0.04292
C542	N180	0.04022
C543	H448	0.03976
C543	N178	0.04028
C544	H442	0.03947
C544	N179	0.03925
C545	H449	0.03219
C545	N178	0.04950
C546	H450	0.03154
C546	N179	0.05002
C547	C548	0.03554
C547	H451	0.03168
C547	N180	0.05359
C548	C549	0.04096
C548	H444	0.04292
C549	C551	0.03660
C550	O181	0.03858
C550	O184	0.04850
C550	C570	0.03565
C551	O178	0.04836
C551	O179	0.03798
C552	O180	0.03711
C552	O182	0.04967
C552	C575	0.03645
H452	N181	0.04074
H453	N181	0.02544
H454	N213	0.02494
H455	N216	0.02914
H456	N217	0.02435
H457	N182	0.04125
H458	N182	0.02611
N177	Ni45	0.05351
N178	Ni46	0.05009
N179	Ni45	0.05269
N180	Ni46	0.05172
Ni45	O177	0.06673
Ni45	O178	0.04745
Ni45	O179	0.06653
Ni45	O183	0.04766
Ni46	O180	0.06828
Ni46	O181	0.06744
Ni46	O182	0.04697
Ni46	O184	0.04734
O182	H480	0.04869
C553	C559	0.03483
C553	C649	0.05612
C553	N223	0.04163
C555	C561	0.03553
C555	H467	0.04282
C555	C649	0.04160
C556	C562	0.03563
C556	N187	0.05182
C557	C558	0.03386
C557	C565	0.05302
C557	N188	0.04122
C558	H459	0.04031
C558	N185	0.04019
C559	H461	0.04259
C559	N183	0.04071
C560	H469	0.04248
C561	H462	0.03203
C561	N183	0.05338
C562	H463	0.03241
C562	N184	0.05245
C563	C564	0.03426
C563	H464	0.03205
C563	N185	0.05069
C564	C565	0.04133
C565	C567	0.03564
C566	O187	0.03770
C566	O190	0.04914
C567	O185	0.03754
C568	O186	0.03771
C568	O188	0.04834
C569	C576	0.03628
C570	C658	0.05217
C570	C660	0.04082
C571	C575	0.05305
C572	H460	0.04132
C573	C574	0.03541
C573	H470	0.03206
C573	N186	0.05140
C574	C575	0.04200
C574	N192	0.05031
C576	O191	0.03736
H468	C660	0.04002
H472	N187	0.02937
H473	N188	0.03933
H474	N188	0.02394
H475	N189	0.03958
H476	N189	0.02477
H477	N190	0.02522
H478	N191	0.03802
H479	N192	0.02875
H480	N192	0.02549
N183	Ni47	0.05193
N184	Ni48	0.04935
N185	Ni47	0.05147
Ni47	O186	0.06871
Ni47	O187	0.06810
Ni47	O188	0.04618
Ni47	O190	0.04644
Ni48	O185	0.07156
Ni48	O189	0.04703
C577	C583	0.03483
C577	C673	0.05612
C577	N229	0.04163
C579	C585	0.03553
C579	H489	0.04282
C579	C673	0.04160
C580	C586	0.03563
C580	N197	0.05182
C581	C582	0.03386
C581	C589	0.05302
C581	N198	0.04122
C582	H481	0.04031
C582	N195	0.04019
C583	H483	0.04259
C583	N193	0.04071
C584	H491	0.04248
C585	H484	0.03203
C585	N193	0.05338
C586	H485	0.03241
C586	N194	0.05245
C587	C588	0.03426
C587	H486	0.03205
C587	N195	0.05069
C588	C589	0.04133
C589	C591	0.03564
C590	O195	0.03770
C590	O198	0.04914
C590	C602	0.03628
C591	O193	0.03754
C592	O194	0.03771
C592	O196	0.04834
C592	C607	0.03556
C593	C600	0.03628
C594	C682	0.05217
C594	C684	0.04082
C595	C599	0.05305
C596	H482	0.04132
C597	C598	0.03541
C597	H492	0.03206
C597	N196	0.05140
C598	C599	0.04200
C598	N202	0.05031
C600	O199	0.03736
H490	C684	0.04002
H494	N197	0.02937
H495	N198	0.03933
H496	N198	0.02394
H497	N199	0.03958
H498	N199	0.02477
H499	N200	0.02522
H500	N201	0.03802
H501	N202	0.02875
H502	N202	0.02549
N193	Ni49	0.05193
N194	Ni50	0.04935
N195	Ni49	0.05147
N199	C603	0.04095
N201	C610	0.04078
Ni49	O194	0.06871
Ni49	O195	0.06810
Ni49	O196	0.04618
Ni49	O198	0.04644
Ni50	O193	0.07156
Ni50	O197	0.04703
O198	H516	0.04882
C601	C608	0.03617
C602	C698	0.05443
C602	C700	0.04295
C603	C604	0.03454
C603	C607	0.05407
C604	H509	0.04126
C604	N203	0.03990
C605	C606	0.03484
C605	H505	0.03179
C605	N203	0.05226
C606	C607	0.04122
C606	H507	0.04137
C608	O201	0.03847
C608	O207	0.04791
C609	C615	0.03362
C609	C713	0.05134
C609	H585	0.03328
C610	C616	0.03415
C611	C617	0.03497
C611	C713	0.04221
C612	C618	0.03499
C613	C614	0.03491
C613	C621	0.05663
C613	N208	0.04060
C614	H508	0.04292
C614	N206	0.04022
C615	H510	0.03976
C615	N204	0.04028
C616	H504	0.03947
C616	N205	0.03925
C617	H511	0.03219
C617	N204	0.04950
C618	H512	0.03154
C618	N205	0.05002
C619	C620	0.03554
C619	H513	0.03168
C619	N206	0.05359
C620	C621	0.04096
C620	H506	0.04292
C621	C623	0.03660
C622	O205	0.03858
C622	O208	0.04850
C622	C642	0.03565
C623	O202	0.04836
C623	O203	0.03798
C624	O204	0.03711
C624	O206	0.04967
C624	C647	0.03645
H514	N207	0.04074
H515	N207	0.02544
H516	N235	0.02494
H517	N238	0.02914
H518	N239	0.02435
H519	N208	0.04125
H520	N208	0.02611
N203	Ni51	0.05351
N204	Ni52	0.05009
N205	Ni51	0.05269
N206	Ni52	0.05172
Ni51	O201	0.06673
Ni51	O202	0.04745
Ni51	O203	0.06653
Ni51	O207	0.04766
Ni52	O204	0.06828
Ni52	O205	0.06744
Ni52	O206	0.04697
Ni52	O208	0.04734
O206	H542	0.04869
C625	C631	0.03483
C625	C721	0.05612
C625	N245	0.04163
C627	C633	0.03553
C627	H529	0.04282
C627	C721	0.04160
C628	C634	0.03563
C628	N213	0.05182
C629	C630	0.03386
C629	C637	0.05302
C629	N214	0.04122
C630	H521	0.04031
C630	N211	0.04019
C631	H523	0.04259
C631	N209	0.04071
C632	H531	0.04248
C633	H524	0.03203
C633	N209	0.05338
C634	H525	0.03241
C634	N210	0.05245
C635	C636	0.03426
C635	H526	0.03205
C635	N211	0.05069
C636	C637	0.04133
C637	C639	0.03564
C638	O211	0.03770
C638	O214	0.04914
C638	C650	0.03628
C639	O209	0.03754
C640	O210	0.03771
C640	O212	0.04834
C640	C655	0.03556
C641	C648	0.03628
C642	C730	0.05217
C642	C732	0.04082
C643	C647	0.05305
C644	H522	0.04132
C645	C646	0.03541
C645	H532	0.03206
C645	N212	0.05140
C646	C647	0.04200
C646	N218	0.05031
C648	O215	0.03736
H530	C732	0.04002
H534	N213	0.02937
H535	N214	0.03933
H536	N214	0.02394
H537	N215	0.03958
H538	N215	0.02477
H539	N216	0.02522
H540	N217	0.03802
H541	N218	0.02875
H542	N218	0.02549
N209	Ni53	0.05193
N210	Ni54	0.04935
N211	Ni53	0.05147
N215	C651	0.04095
N217	C658	0.04078
Ni53	O210	0.06871
Ni53	O211	0.06810
Ni53	O212	0.04618
Ni53	O214	0.04644
Ni54	O209	0.07156
Ni54	O213	0.04703
O214	H556	0.04882
C649	C656	0.03617
C650	C746	0.05443
C650	C748	0.04295
C651	C652	0.03454
C651	C655	0.05407
C652	H549	0.04126
C652	N219	0.03990
C653	C654	0.03484
C653	H545	0.03179
C653	N219	0.05226
C654	C655	0.04122
C654	H547	0.04137
C656	O217	0.03847
C656	O223	0.04791
C657	C663	0.03362
C657	C761	0.05134
C657	H625	0.03328
C658	C664	0.03415
C659	C665	0.03497
C659	C761	0.04221
C660	C666	0.03499
C661	C662	0.03491
C661	C669	0.05663
C661	N224	0.04060
C662	H548	0.04292
C662	N222	0.04022
C663	H550	0.03976
C663	N220	0.04028
C664	H544	0.03947
C664	N221	0.03925
C665	H551	0.03219
C665	N220	0.04950
C666	H552	0.03154
C666	N221	0.05002
C667	C668	0.03554
C667	H553	0.03168
C667	N222	0.05359
C668	C669	0.04096
C668	H546	0.04292
C669	C671	0.03660
C670	O221	0.03858
C670	O224	0.04850
C671	O218	0.04836
C671	O219	0.03798
C672	O220	0.03711
C672	O222	0.04967
H554	N223	0.04074
H555	N223	0.02544
H556	N251	0.02494
H557	N254	0.02914
H558	N255	0.02435
H559	N224	0.04125
H560	N224	0.02611
N219	Ni55	0.05351
N220	Ni56	0.05009
N221	Ni55	0.05269
N222	Ni56	0.05172
Ni55	O217	0.06673
Ni55	O218	0.04745
Ni55	O219	0.06653
Ni55	O223	0.04766
Ni56	O220	0.06828
Ni56	O221	0.06744
Ni56	O222	0.04697
Ni56	O224	0.04734
C673	C680	0.03617
C675	C676	0.03454
C675	C679	0.05407
C676	H567	0.04126
C676	N225	0.03990
C677	C678	0.03484
C677	H563	0.03179
C677	N225	0.05226
C678	C679	0.04122
C678	H565	0.04137
C680	O225	0.03847
C680	O231	0.04791
C681	C687	0.03362
C682	C688	0.03415
C683	C689	0.03497
C684	C690	0.03499
C685	C686	0.03491
C685	C693	0.05663
C685	N230	0.04060
C686	H566	0.04292
C686	N228	0.04022
C687	H568	0.03976
C687	N226	0.04028
C688	H562	0.03947
C688	N227	0.03925
C689	H569	0.03219
C689	N226	0.04950
C690	H570	0.03154
C690	N227	0.05002
C691	C692	0.03554
C691	H571	0.03168
C691	N228	0.05359
C692	C693	0.04096
C692	H564	0.04292
C693	C695	0.03660
C694	O229	0.03858
C694	O232	0.04850
C694	C714	0.03565
C695	O226	0.04836
C695	O227	0.03798
C696	O228	0.03711
C696	O230	0.04967
C696	C719	0.03645
H572	N229	0.04074
H573	N229	0.02544
H577	N230	0.04125
H578	N230	0.02611
N225	Ni57	0.05351
N226	Ni58	0.05009
N227	Ni57	0.05269
N228	Ni58	0.05172
Ni57	O225	0.06673
Ni57	O226	0.04745
Ni57	O227	0.06653
Ni57	O231	0.04766
Ni58	O228	0.06828
Ni58	O229	0.06744
Ni58	O230	0.04697
Ni58	O232	0.04734
O230	H600	0.04869
C697	C703	0.03483
C699	C705	0.03553
C699	H587	0.04282
C700	C706	0.03563
C700	N235	0.05182
C701	C702	0.03386
C701	C709	0.05302
C701	N236	0.04122
C702	H579	0.04031
C702	N233	0.04019
C703	H581	0.04259
C703	N231	0.04071
C704	H589	0.04248
C705	H582	0.03203
C705	N231	0.05338
C706	H583	0.03241
C706	N232	0.05245
C707	C708	0.03426
C707	H584	0.03205
C707	N233	0.05069
C708	C709	0.04133
C709	C711	0.03564
C710	O235	0.03770
C710	O238	0.04914
C710	C722	0.03628
C711	O233	0.03754
C712	O234	0.03771
C712	O236	0.04834
C712	C727	0.03556
C713	C720	0.03628
C715	C719	0.05305
C716	H580	0.04132
C717	C718	0.03541
C717	H590	0.03206
C717	N234	0.05140
C718	C719	0.04200
C718	N240	0.05031
C720	O239	0.03736
H592	N235	0.02937
H593	N236	0.03933
H594	N236	0.02394
H595	N237	0.03958
H596	N237	0.02477
H597	N238	0.02522
H598	N239	0.03802
H599	N240	0.02875
H600	N240	0.02549
N231	Ni59	0.05193
N232	Ni60	0.04935
N233	Ni59	0.05147
N237	C723	0.04095
N239	C730	0.04078
Ni59	O234	0.06871
Ni59	O235	0.06810
Ni59	O236	0.04618
Ni59	O238	0.04644
Ni60	O233	0.07156
Ni60	O237	0.04703
O238	H614	0.04882
C721	C728	0.03617
C723	C724	0.03454
C723	C727	0.05407
C724	H607	0.04126
C724	N241	0.03990
C725	C726	0.03484
C725	H603	0.03179
C725	N241	0.05226
C726	C727	0.04122
C726	H605	0.04137
C728	O241	0.03847
C728	O247	0.04791
C729	C735	0.03362
C730	C736	0.03415
C731	C737	0.03497
C732	C738	0.03499
C733	C734	0.03491
C733	C741	0.05663
C733	N246	0.04060
C734	H606	0.04292
C734	N244	0.04022
C735	H608	0.03976
C735	N242	0.04028
C736	H602	0.03947
C736	N243	0.03925
C737	H609	0.03219
C737	N242	0.04950
C738	H610	0.03154
C738	N243	0.05002
C739	C740	0.03554
C739	H611	0.03168
C739	N244	0.05359
C740	C741	0.04096
C740	H604	0.04292
C741	C743	0.03660
C742	O245	0.03858
C742	O248	0.04850
C742	C762	0.03565
C743	O242	0.04836
C743	O243	0.03798
C744	O244	0.03711
C744	O246	0.04967
C744	C767	0.03645
H612	N245	0.04074
H613	N245	0.02544
H617	N246	0.04125
H618	N246	0.02611
N241	Ni61	0.05351
N242	Ni62	0.05009
N243	Ni61	0.05269
N244	Ni62	0.05172
Ni61	O241	0.06673
Ni61	O242	0.04745
Ni61	O243	0.06653
Ni61	O247	0.04766
Ni62	O244	0.06828
Ni62	O245	0.06744
Ni62	O246	0.04697
Ni62	O248	0.04734
O246	H640	0.04869
C745	C751	0.03483
C747	C753	0.03553
C747	H627	0.04282
C748	C754	0.03563
C748	N251	0.05182
C749	C750	0.03386
C749	C757	0.05302
C749	N252	0.04122
C750	H619	0.04031
C750	N249	0.04019
C751	H621	0.04259
C751	N247	0.04071
C752	H629	0.04248
C753	H622	0.03203
C753	N247	0.05338
C754	H623	0.03241
C754	N248	0.05245
C755	C756	0.03426
C755	H624	0.03205
C755	N249	0.05069
C756	C757	0.04133
C757	C759	0.03564
C758	O251	0.03770
C758	O254	0.04914
C759	O249	0.03754
C760	O250	0.03771
C760	O252	0.04834
C761	C768	0.03628
C763	C767	0.05305
C764	H620	0.04132
C765	C766	0.03541
C765	H630	0.03206
C765	N250	0.05140
C766	C767	0.04200
C766	N256	0.05031
C768	O255	0.03736
H632	N251	0.02937
H633	N252	0.03933
H634	N252	0.02394
H635	N253	0.03958
H636	N253	0.02477
H637	N254	0.02522
H638	N255	0.03802
H639	N256	0.02875
H640	N256	0.02549
N247	Ni63	0.05193
N248	Ni64	0.04935
N249	Ni63	0.05147
Ni63	O250	0.06871
Ni63	O251	0.06810
Ni63	O252	0.04618
Ni63	O254	0.04644
Ni64	O249	0.07156
Ni64	O253	0.04703
