data_NiPyC2_mNH2NiPyC2_mNH2_comp2_PM
_symmetry_space_group_name_H-M	'P1'
_cell_length_a	25.011234
_cell_length_b	50.093648
_cell_length_c	41.107240
_cell_angle_alpha	90.000000
_cell_angle_beta	91.268973
_cell_angle_gamma	90.000000
_symmetry_Int_Tables_number 1

loop_
_symmetry_equiv_pos_as_xyz
'x,y,z'

loop_
_atom_site_label
_atom_site_type_symbol
_atom_site_fract_x
_atom_site_fract_y
_atom_site_fract_z
C1	C	0.196249	0.001053	0.134971
C2	C	0.067224	0.246315	0.010833
C3	C	0.230654	0.116076	0.005903
C4	C	0.248496	0.094827	0.026473
C5	C	0.165767	0.092166	0.050323
C6	C	0.145408	0.113287	0.031534
C7	C	0.177667	0.126251	0.009388
C8	C	0.217413	0.023461	0.116037
C9	C	0.391593	0.244372	0.130997
C10	C	0.273023	0.010131	0.004384
C11	C	0.471990	0.245856	0.164114
C12	C	0.352444	0.006523	0.038078
C13	C	0.359027	0.127083	0.137996
C14	C	0.378059	0.148664	0.157759
C15	C	0.373964	0.223205	0.150270
C16	C	0.255653	0.030800	0.025294
C17	C	0.451597	0.223981	0.182245
C18	C	0.331877	0.026520	0.058108
C19	C	0.291727	0.158677	0.173183
C20	C	0.269906	0.138035	0.154186
C21	C	0.302683	0.121926	0.135639
C22	C	0.342788	0.225434	0.241053
C23	C	0.281327	0.099758	0.115847
C24	C	0.410241	0.152506	0.241482
H1	H	0.010455	0.130514	0.241131
H2	H	0.217850	0.040913	0.020136
H3	H	0.141263	0.081661	0.067640
H4	H	0.227175	0.134177	0.155254
H5	H	0.104763	0.120101	0.035189
H6	H	0.420710	0.152966	0.159875
H7	H	0.288950	0.087012	0.024395
H8	H	0.335672	0.213522	0.145696
H9	H	0.475289	0.215628	0.202371
H10	H	0.354031	0.033656	0.079387
H11	H	0.266734	0.171208	0.188084
H12	H	0.065184	0.006761	0.117445
H13	H	0.121294	0.023592	0.102910
H14	H	0.166518	0.237969	0.026969
H15	H	0.039329	0.246240	0.192685
H16	H	0.253953	0.237290	0.215351
H17	H	0.434582	0.111178	0.126073
H18	H	0.376831	0.095277	0.111006
N1	N	0.217375	0.084044	0.048993
N2	N	0.403668	0.213507	0.175693
N3	N	0.283593	0.038013	0.051899
N4	N	0.345052	0.163677	0.175161
N5	N	0.105868	0.007778	0.115517
N6	N	0.393417	0.111153	0.123444
Ni1	Ni	0.249772	0.061237	0.084958
Ni2	Ni	0.375262	0.188839	0.208766
O1	O	0.188828	0.035320	0.093181
O2	O	0.233893	0.090742	0.118555
O3	O	0.310092	0.087753	0.094146
O4	O	0.438163	0.165002	0.220482
O5	O	0.313484	0.213981	0.218733
O6	O	0.361262	0.160502	0.243506
O7	O	0.264137	0.033043	0.120594
O8	O	0.390261	0.216111	0.244443
C25	C	0.140527	0.244398	0.384291
C26	C	0.013270	0.003334	0.259357
C27	C	0.229052	0.236018	0.405670
C28	C	0.101023	0.010796	0.283029
C29	C	0.108249	0.132665	0.383389
C30	C	0.124193	0.153910	0.404389
C31	C	0.121592	0.223797	0.405039
C32	C	0.493850	0.023759	0.279147
C33	C	0.207177	0.216231	0.425474
C34	C	0.078788	0.032520	0.300440
C35	C	0.043297	0.152359	0.431130
C36	C	0.024879	0.131474	0.411176
C37	C	0.056660	0.120960	0.386929
C38	C	0.088673	0.224523	0.491310
C39	C	0.037773	0.098715	0.366470
C40	C	0.157982	0.149636	0.491218
C41	C	0.441159	0.006231	0.387219
C42	C	0.323172	0.247429	0.261117
C43	C	0.483516	0.121120	0.258059
C44	C	0.002511	0.099948	0.277331
C45	C	0.420536	0.095003	0.301995
C46	C	0.399146	0.117433	0.284878
C47	C	0.431396	0.130433	0.261326
C48	C	0.462042	0.027693	0.366739
H19	H	0.163350	0.163189	0.401992
H20	H	0.043106	0.092470	0.275580
H21	H	0.079329	0.218528	0.404788
H22	H	0.231739	0.204901	0.442622
H23	H	0.104442	0.045080	0.315747
H24	H	0.018943	0.160592	0.450271
H25	H	0.365766	0.001335	0.361196
H26	H	0.484839	0.242400	0.494061
H27	H	0.271619	0.240222	0.407687
H28	H	0.390966	0.247691	0.294352
H29	H	0.451696	0.028981	0.279386
H30	H	0.395278	0.083447	0.317997
H31	H	0.485760	0.123048	0.415857
H32	H	0.172669	0.014198	0.307485
H33	H	0.180739	0.130108	0.360914
H34	H	0.130704	0.107621	0.347831
H35	H	0.303163	0.121019	0.483734
H36	H	0.250634	0.142709	0.471379
H37	H	0.034089	0.021876	0.411710
H38	H	0.204703	0.011171	0.475695
H39	H	0.329804	0.115562	0.310116
H40	H	0.334854	0.141798	0.279885
N7	N	0.154069	0.210871	0.425907
N8	N	0.026624	0.037914	0.299563
N9	N	0.092730	0.163015	0.427675
N10	N	0.471302	0.087452	0.299269
N11	N	0.152135	0.004515	0.288852
N12	N	0.141875	0.124091	0.361137
N13	N	0.263965	0.126434	0.484458
N14	N	0.019064	0.005839	0.424077
N15	N	0.241674	0.003049	0.479279
N16	N	0.350052	0.125538	0.292305
Ni3	Ni	0.123593	0.187457	0.460835
Ni4	Ni	0.000082	0.062694	0.332980
O9	O	0.066374	0.086632	0.345375
O10	O	0.186836	0.162435	0.470590
O11	O	0.060984	0.213155	0.468398
O12	O	0.110670	0.158917	0.494754
O13	O	0.011659	0.035014	0.369203
O14	O	0.136843	0.215649	0.495277
O15	O	0.434298	0.040183	0.345060
O16	O	0.489517	0.090083	0.368571
C49	C	0.196249	0.001053	0.634972
C50	C	0.067224	0.246315	0.510833
C51	C	0.230654	0.116076	0.505903
C52	C	0.248496	0.094827	0.526473
C53	C	0.165767	0.092166	0.550323
C54	C	0.145408	0.113287	0.531534
C55	C	0.177667	0.126251	0.509387
C56	C	0.217413	0.023461	0.616036
C57	C	0.391593	0.244372	0.630997
C58	C	0.273023	0.010131	0.504384
C59	C	0.471990	0.245856	0.664114
C60	C	0.352444	0.006523	0.538078
C61	C	0.359027	0.127083	0.637996
C62	C	0.378059	0.148664	0.657759
C63	C	0.373964	0.223205	0.650270
C64	C	0.255653	0.030800	0.525294
C65	C	0.451597	0.223981	0.682245
C66	C	0.331877	0.026520	0.558108
C67	C	0.291727	0.158677	0.673183
C68	C	0.269906	0.138035	0.654185
C69	C	0.302683	0.121926	0.635639
C70	C	0.342788	0.225434	0.741053
C71	C	0.281327	0.099758	0.615846
C72	C	0.410241	0.152506	0.741483
H41	H	0.010455	0.130514	0.741131
H42	H	0.217850	0.040913	0.520135
H43	H	0.141263	0.081661	0.567640
H44	H	0.227175	0.134177	0.655254
H45	H	0.104763	0.120101	0.535189
H46	H	0.420710	0.152966	0.659875
H47	H	0.288950	0.087012	0.524395
H48	H	0.335672	0.213522	0.645696
H49	H	0.475289	0.215628	0.702371
H50	H	0.354031	0.033656	0.579387
H51	H	0.266734	0.171208	0.688084
H52	H	0.065184	0.006761	0.617445
H53	H	0.121294	0.023592	0.602910
H54	H	0.166518	0.237969	0.526969
H55	H	0.039329	0.246240	0.692685
H56	H	0.253953	0.237290	0.715351
H57	H	0.434582	0.111178	0.626073
H58	H	0.376831	0.095277	0.611006
N17	N	0.217375	0.084044	0.548993
N18	N	0.403668	0.213507	0.675693
N19	N	0.283593	0.038013	0.551898
N20	N	0.345052	0.163677	0.675161
N21	N	0.105868	0.007778	0.615517
N22	N	0.393417	0.111153	0.623444
Ni5	Ni	0.249772	0.061237	0.584958
Ni6	Ni	0.375262	0.188839	0.708766
O17	O	0.188828	0.035320	0.593181
O18	O	0.233893	0.090742	0.618555
O19	O	0.310092	0.087753	0.594146
O20	O	0.438163	0.165002	0.720482
O21	O	0.313484	0.213981	0.718733
O22	O	0.361262	0.160502	0.743506
O23	O	0.264137	0.033043	0.620594
O24	O	0.390261	0.216111	0.744443
C73	C	0.140527	0.244398	0.884291
C74	C	0.013270	0.003334	0.759357
C75	C	0.229052	0.236018	0.905670
C76	C	0.101023	0.010796	0.783029
C77	C	0.108249	0.132665	0.883389
C78	C	0.124193	0.153910	0.904389
C79	C	0.121592	0.223797	0.905039
C80	C	0.493850	0.023759	0.779147
C81	C	0.207177	0.216231	0.925474
C82	C	0.078788	0.032520	0.800440
C83	C	0.043297	0.152359	0.931130
C84	C	0.024879	0.131474	0.911176
C85	C	0.056660	0.120960	0.886929
C86	C	0.088673	0.224523	0.991310
C87	C	0.037773	0.098715	0.866470
C88	C	0.157982	0.149636	0.991218
C89	C	0.441159	0.006231	0.887219
C90	C	0.323172	0.247429	0.761117
C91	C	0.483516	0.121120	0.758059
C92	C	0.002511	0.099948	0.777331
C93	C	0.420536	0.095003	0.801995
C94	C	0.399146	0.117433	0.784878
C95	C	0.431396	0.130433	0.761326
C96	C	0.462042	0.027693	0.866739
H59	H	0.163350	0.163189	0.901992
H60	H	0.043106	0.092470	0.775580
H61	H	0.079329	0.218528	0.904788
H62	H	0.231739	0.204901	0.942622
H63	H	0.104442	0.045080	0.815747
H64	H	0.018943	0.160592	0.950271
H65	H	0.365766	0.001335	0.861196
H66	H	0.484839	0.242400	0.994061
H67	H	0.271619	0.240222	0.907687
H68	H	0.390966	0.247691	0.794352
H69	H	0.451696	0.028981	0.779386
H70	H	0.395278	0.083447	0.817997
H71	H	0.485760	0.123048	0.915857
H72	H	0.172669	0.014198	0.807485
H73	H	0.180739	0.130108	0.860914
H74	H	0.130704	0.107621	0.847831
H75	H	0.303163	0.121019	0.983734
H76	H	0.250634	0.142709	0.971379
H77	H	0.034089	0.021876	0.911710
H78	H	0.204703	0.011171	0.975695
H79	H	0.329804	0.115562	0.810116
H80	H	0.334854	0.141798	0.779885
N23	N	0.154069	0.210871	0.925907
N24	N	0.026624	0.037914	0.799562
N25	N	0.092730	0.163015	0.927675
N26	N	0.471302	0.087452	0.799269
N27	N	0.152135	0.004515	0.788852
N28	N	0.141875	0.124091	0.861137
N29	N	0.263965	0.126434	0.984458
N30	N	0.019064	0.005839	0.924077
N31	N	0.241674	0.003049	0.979279
N32	N	0.350052	0.125538	0.792305
Ni7	Ni	0.123593	0.187457	0.960835
Ni8	Ni	0.000082	0.062694	0.832980
O25	O	0.066374	0.086632	0.845375
O26	O	0.186836	0.162435	0.970590
O27	O	0.060984	0.213155	0.968398
O28	O	0.110670	0.158917	0.994754
O29	O	0.011659	0.035014	0.869203
O30	O	0.136843	0.215649	0.995277
O31	O	0.434298	0.040183	0.845059
O32	O	0.489517	0.090083	0.868571
C97	C	0.140527	0.494398	0.134291
C98	C	0.013270	0.253333	0.009357
C99	C	0.229052	0.486019	0.155670
C100	C	0.101023	0.260796	0.033029
C101	C	0.108249	0.382665	0.133389
C102	C	0.124193	0.403910	0.154389
C103	C	0.121592	0.473797	0.155039
C104	C	0.493850	0.273759	0.029147
C105	C	0.207177	0.466231	0.175475
C106	C	0.078788	0.282520	0.050440
C107	C	0.043297	0.402359	0.181130
C108	C	0.024879	0.381474	0.161176
C109	C	0.056660	0.370960	0.136929
C110	C	0.088673	0.474523	0.241310
C111	C	0.037773	0.348716	0.116470
C112	C	0.157982	0.399636	0.241218
C113	C	0.441159	0.256231	0.137219
C114	C	0.323172	0.497429	0.011117
C115	C	0.483516	0.371120	0.008059
C116	C	0.002511	0.349948	0.027331
C117	C	0.420536	0.345003	0.051995
C118	C	0.399146	0.367433	0.034878
C119	C	0.431396	0.380433	0.011326
C120	C	0.462042	0.277693	0.116739
H81	H	0.163350	0.413189	0.151993
H82	H	0.043106	0.342470	0.025580
H83	H	0.079329	0.468528	0.154788
H84	H	0.231739	0.454901	0.192622
H85	H	0.104442	0.295080	0.065747
H86	H	0.018943	0.410592	0.200271
H87	H	0.365766	0.251335	0.111196
H88	H	0.484839	0.492400	0.244061
H89	H	0.271619	0.490222	0.157688
H90	H	0.390966	0.497691	0.044352
H91	H	0.451696	0.278981	0.029386
H92	H	0.395278	0.333446	0.067997
H93	H	0.485760	0.373048	0.165857
H94	H	0.172669	0.264197	0.057485
H95	H	0.180739	0.380108	0.110914
H96	H	0.130704	0.357621	0.097831
H97	H	0.303163	0.371019	0.233734
H98	H	0.250634	0.392709	0.221379
H99	H	0.034089	0.271876	0.161710
H100	H	0.204703	0.261171	0.225694
H101	H	0.329804	0.365562	0.060116
H102	H	0.334854	0.391798	0.029885
N33	N	0.154069	0.460871	0.175907
N34	N	0.026624	0.287913	0.049563
N35	N	0.092730	0.413015	0.177675
N36	N	0.471302	0.337452	0.049269
N37	N	0.152135	0.254515	0.038852
N38	N	0.141875	0.374091	0.111137
N39	N	0.263965	0.376433	0.234458
N40	N	0.019064	0.255839	0.174077
N41	N	0.241674	0.253049	0.229279
N42	N	0.350052	0.375538	0.042305
Ni9	Ni	0.123593	0.437457	0.210835
Ni10	Ni	0.000082	0.312694	0.082980
O33	O	0.066374	0.336632	0.095375
O34	O	0.186836	0.412435	0.220590
O35	O	0.060984	0.463155	0.218397
O36	O	0.110670	0.408917	0.244755
O37	O	0.011659	0.285015	0.119203
O38	O	0.136843	0.465649	0.245277
O39	O	0.434298	0.290183	0.095060
O40	O	0.489517	0.340083	0.118571
C121	C	0.196249	0.251053	0.384972
C122	C	0.067224	0.496315	0.260833
C123	C	0.230654	0.366076	0.255903
C124	C	0.248496	0.344827	0.276473
C125	C	0.165767	0.342166	0.300323
C126	C	0.145408	0.363287	0.281534
C127	C	0.177667	0.376251	0.259387
C128	C	0.217413	0.273461	0.366036
C129	C	0.391593	0.494372	0.380997
C130	C	0.273023	0.260131	0.254384
C131	C	0.471990	0.495856	0.414114
C132	C	0.352444	0.256523	0.288078
C133	C	0.359027	0.377083	0.387996
C134	C	0.378059	0.398664	0.407759
C135	C	0.373964	0.473205	0.400270
C136	C	0.255653	0.280800	0.275294
C137	C	0.451597	0.473981	0.432245
C138	C	0.331877	0.276520	0.308108
C139	C	0.291727	0.408678	0.423183
C140	C	0.269906	0.388035	0.404185
C141	C	0.302683	0.371926	0.385639
C142	C	0.342788	0.475434	0.491053
C143	C	0.281327	0.349758	0.365847
C144	C	0.410241	0.402506	0.491482
H103	H	0.010455	0.380514	0.491131
H104	H	0.217850	0.290913	0.270135
H105	H	0.141263	0.331661	0.317640
H106	H	0.227175	0.384177	0.405254
H107	H	0.104763	0.370101	0.285189
H108	H	0.420710	0.402966	0.409875
H109	H	0.288950	0.337012	0.274395
H110	H	0.335672	0.463522	0.395696
H111	H	0.475289	0.465628	0.452371
H112	H	0.354031	0.283656	0.329387
H113	H	0.266734	0.421208	0.438084
H114	H	0.065184	0.256761	0.367445
H115	H	0.121294	0.273592	0.352910
H116	H	0.166518	0.487969	0.276969
H117	H	0.039329	0.496240	0.442685
H118	H	0.253953	0.487290	0.465351
H119	H	0.434582	0.361178	0.376073
H120	H	0.376831	0.345276	0.361006
N43	N	0.217375	0.334044	0.298993
N44	N	0.403668	0.463507	0.425693
N45	N	0.283593	0.288013	0.301899
N46	N	0.345052	0.413677	0.425161
N47	N	0.105868	0.257778	0.365517
N48	N	0.393417	0.361153	0.373445
Ni11	Ni	0.249772	0.311237	0.334958
Ni12	Ni	0.375262	0.438839	0.458766
O41	O	0.188828	0.285320	0.343181
O42	O	0.233893	0.340742	0.368555
O43	O	0.310092	0.337753	0.344146
O44	O	0.438163	0.415002	0.470482
O45	O	0.313484	0.463981	0.468733
O46	O	0.361262	0.410502	0.493506
O47	O	0.264137	0.283042	0.370594
O48	O	0.390261	0.466111	0.494443
C145	C	0.140527	0.494398	0.634291
C146	C	0.013270	0.253333	0.509357
C147	C	0.229052	0.486019	0.655670
C148	C	0.101023	0.260796	0.533029
C149	C	0.108249	0.382665	0.633389
C150	C	0.124193	0.403910	0.654389
C151	C	0.121592	0.473797	0.655039
C152	C	0.493850	0.273759	0.529147
C153	C	0.207177	0.466231	0.675474
C154	C	0.078788	0.282520	0.550440
C155	C	0.043297	0.402359	0.681130
C156	C	0.024879	0.381474	0.661176
C157	C	0.056660	0.370960	0.636929
C158	C	0.088673	0.474523	0.741310
C159	C	0.037773	0.348716	0.616470
C160	C	0.157982	0.399636	0.741218
C161	C	0.441159	0.256231	0.637219
C162	C	0.323172	0.497429	0.511117
C163	C	0.483516	0.371120	0.508059
C164	C	0.002511	0.349948	0.527331
C165	C	0.420536	0.345003	0.551995
C166	C	0.399146	0.367433	0.534878
C167	C	0.431396	0.380433	0.511326
C168	C	0.462042	0.277693	0.616739
H121	H	0.163350	0.413189	0.651992
H122	H	0.043106	0.342470	0.525580
H123	H	0.079329	0.468528	0.654788
H124	H	0.231739	0.454901	0.692622
H125	H	0.104442	0.295080	0.565747
H126	H	0.018943	0.410592	0.700271
H127	H	0.365766	0.251335	0.611196
H128	H	0.484839	0.492400	0.744061
H129	H	0.271619	0.490222	0.657687
H130	H	0.390966	0.497691	0.544352
H131	H	0.451696	0.278981	0.529386
H132	H	0.395278	0.333446	0.567997
H133	H	0.485760	0.373048	0.665857
H134	H	0.172669	0.264197	0.557485
H135	H	0.180739	0.380108	0.610914
H136	H	0.130704	0.357621	0.597831
H137	H	0.303163	0.371019	0.733734
H138	H	0.250634	0.392709	0.721379
H139	H	0.034089	0.271876	0.661710
H140	H	0.204703	0.261171	0.725695
H141	H	0.329804	0.365562	0.560116
H142	H	0.334854	0.391798	0.529885
N49	N	0.154069	0.460871	0.675907
N50	N	0.026624	0.287913	0.549562
N51	N	0.092730	0.413015	0.677675
N52	N	0.471302	0.337452	0.549269
N53	N	0.152135	0.254515	0.538852
N54	N	0.141875	0.374091	0.611137
N55	N	0.263965	0.376433	0.734458
N56	N	0.019064	0.255839	0.674077
N57	N	0.241674	0.253049	0.729279
N58	N	0.350052	0.375538	0.542305
Ni13	Ni	0.123593	0.437457	0.710835
Ni14	Ni	0.000082	0.312694	0.582980
O49	O	0.066374	0.336632	0.595375
O50	O	0.186836	0.412435	0.720590
O51	O	0.060984	0.463155	0.718398
O52	O	0.110670	0.408917	0.744754
O53	O	0.011659	0.285015	0.619203
O54	O	0.136843	0.465649	0.745277
O55	O	0.434298	0.290183	0.595059
O56	O	0.489517	0.340083	0.618571
C169	C	0.196249	0.251053	0.884972
C170	C	0.067224	0.496315	0.760833
C171	C	0.230654	0.366076	0.755903
C172	C	0.248496	0.344827	0.776473
C173	C	0.165767	0.342166	0.800323
C174	C	0.145408	0.363287	0.781534
C175	C	0.177667	0.376251	0.759387
C176	C	0.217413	0.273461	0.866036
C177	C	0.391593	0.494372	0.880997
C178	C	0.273023	0.260131	0.754384
C179	C	0.471990	0.495856	0.914114
C180	C	0.352444	0.256523	0.788078
C181	C	0.359027	0.377083	0.887996
C182	C	0.378059	0.398664	0.907759
C183	C	0.373964	0.473205	0.900270
C184	C	0.255653	0.280800	0.775294
C185	C	0.451597	0.473981	0.932245
C186	C	0.331877	0.276520	0.808108
C187	C	0.291727	0.408678	0.923183
C188	C	0.269906	0.388035	0.904185
C189	C	0.302683	0.371926	0.885639
C190	C	0.342788	0.475434	0.991053
C191	C	0.281327	0.349758	0.865846
C192	C	0.410241	0.402506	0.991483
H143	H	0.010455	0.380514	0.991131
H144	H	0.217850	0.290913	0.770135
H145	H	0.141263	0.331661	0.817640
H146	H	0.227175	0.384177	0.905254
H147	H	0.104763	0.370101	0.785189
H148	H	0.420710	0.402966	0.909875
H149	H	0.288950	0.337012	0.774395
H150	H	0.335672	0.463522	0.895696
H151	H	0.475289	0.465628	0.952371
H152	H	0.354031	0.283656	0.829387
H153	H	0.266734	0.421208	0.938084
H154	H	0.065184	0.256761	0.867445
H155	H	0.121294	0.273592	0.852910
H156	H	0.166518	0.487969	0.776969
H157	H	0.039329	0.496240	0.942685
H158	H	0.253953	0.487290	0.965351
H159	H	0.434582	0.361178	0.876073
H160	H	0.376831	0.345276	0.861006
N59	N	0.217375	0.334044	0.798993
N60	N	0.403668	0.463507	0.925693
N61	N	0.283593	0.288013	0.801898
N62	N	0.345052	0.413677	0.925161
N63	N	0.105868	0.257778	0.865517
N64	N	0.393417	0.361153	0.873444
Ni15	Ni	0.249772	0.311237	0.834958
Ni16	Ni	0.375262	0.438839	0.958766
O57	O	0.188828	0.285320	0.843181
O58	O	0.233893	0.340742	0.868555
O59	O	0.310092	0.337753	0.844146
O60	O	0.438163	0.415002	0.970482
O61	O	0.313484	0.463981	0.968733
O62	O	0.361262	0.410502	0.993506
O63	O	0.264137	0.283042	0.870594
O64	O	0.390261	0.466111	0.994443
C193	C	0.196249	0.501053	0.134971
C194	C	0.067224	0.746315	0.010833
C195	C	0.230654	0.616076	0.005903
C196	C	0.248496	0.594827	0.026473
C197	C	0.165767	0.592167	0.050323
C198	C	0.145408	0.613287	0.031534
C199	C	0.177667	0.626251	0.009388
C200	C	0.217413	0.523461	0.116037
C201	C	0.391593	0.744372	0.130997
C202	C	0.273023	0.510131	0.004384
C203	C	0.471990	0.745856	0.164114
C204	C	0.352444	0.506523	0.038078
C205	C	0.359027	0.627083	0.137996
C206	C	0.378059	0.648664	0.157759
C207	C	0.373964	0.723205	0.150270
C208	C	0.255653	0.530800	0.025294
C209	C	0.451597	0.723981	0.182245
C210	C	0.331877	0.526520	0.058108
C211	C	0.291727	0.658678	0.173183
C212	C	0.269906	0.638035	0.154186
C213	C	0.302683	0.621926	0.135639
C214	C	0.342788	0.725434	0.241053
C215	C	0.281327	0.599758	0.115847
C216	C	0.410241	0.652506	0.241482
H161	H	0.010455	0.630514	0.241131
H162	H	0.217850	0.540913	0.020136
H163	H	0.141263	0.581662	0.067640
H164	H	0.227175	0.634177	0.155254
H165	H	0.104763	0.620101	0.035189
H166	H	0.420710	0.652966	0.159875
H167	H	0.288950	0.587012	0.024395
H168	H	0.335672	0.713522	0.145696
H169	H	0.475289	0.715628	0.202371
H170	H	0.354031	0.533656	0.079387
H171	H	0.266734	0.671208	0.188084
H172	H	0.065184	0.506761	0.117445
H173	H	0.121294	0.523592	0.102910
H174	H	0.166518	0.737969	0.026969
H175	H	0.039329	0.746240	0.192685
H176	H	0.253953	0.737290	0.215351
H177	H	0.434582	0.611178	0.126073
H178	H	0.376831	0.595276	0.111006
N65	N	0.217375	0.584044	0.048993
N66	N	0.403668	0.713507	0.175693
N67	N	0.283593	0.538013	0.051899
N68	N	0.345052	0.663677	0.175161
N69	N	0.105868	0.507778	0.115517
N70	N	0.393417	0.611153	0.123444
Ni17	Ni	0.249772	0.561237	0.084958
Ni18	Ni	0.375262	0.688839	0.208766
O65	O	0.188828	0.535320	0.093181
O66	O	0.233893	0.590742	0.118555
O67	O	0.310092	0.587754	0.094146
O68	O	0.438163	0.665002	0.220482
O69	O	0.313484	0.713981	0.218733
O70	O	0.361262	0.660502	0.243506
O71	O	0.264137	0.533042	0.120594
O72	O	0.390261	0.716111	0.244443
C217	C	0.140527	0.744398	0.384291
C218	C	0.013270	0.503333	0.259357
C219	C	0.229052	0.736019	0.405670
C220	C	0.101023	0.510796	0.283029
C221	C	0.108249	0.632665	0.383389
C222	C	0.124193	0.653910	0.404389
C223	C	0.121592	0.723797	0.405039
C224	C	0.493850	0.523759	0.279147
C225	C	0.207177	0.716231	0.425474
C226	C	0.078788	0.532520	0.300440
C227	C	0.043297	0.652359	0.431130
C228	C	0.024879	0.631474	0.411176
C229	C	0.056660	0.620960	0.386929
C230	C	0.088673	0.724523	0.491310
C231	C	0.037773	0.598715	0.366470
C232	C	0.157982	0.649636	0.491218
C233	C	0.441159	0.506231	0.387219
C234	C	0.323172	0.747429	0.261117
C235	C	0.483516	0.621120	0.258059
C236	C	0.002511	0.599948	0.277331
C237	C	0.420536	0.595003	0.301995
C238	C	0.399146	0.617433	0.284878
C239	C	0.431396	0.630433	0.261326
C240	C	0.462042	0.527693	0.366739
H179	H	0.163350	0.663189	0.401992
H180	H	0.043106	0.592470	0.275580
H181	H	0.079329	0.718528	0.404788
H182	H	0.231739	0.704901	0.442622
H183	H	0.104442	0.545080	0.315747
H184	H	0.018943	0.660592	0.450271
H185	H	0.365766	0.501335	0.361196
H186	H	0.484839	0.742400	0.494061
H187	H	0.271619	0.740222	0.407687
H188	H	0.390966	0.747691	0.294352
H189	H	0.451696	0.528981	0.279386
H190	H	0.395278	0.583446	0.317997
H191	H	0.485760	0.623048	0.415857
H192	H	0.172669	0.514197	0.307485
H193	H	0.180739	0.630108	0.360914
H194	H	0.130704	0.607621	0.347831
H195	H	0.303163	0.621019	0.483734
H196	H	0.250634	0.642709	0.471379
H197	H	0.034089	0.521876	0.411710
H198	H	0.204703	0.511171	0.475695
H199	H	0.329804	0.615562	0.310116
H200	H	0.334854	0.641798	0.279885
N71	N	0.154069	0.710871	0.425907
N72	N	0.026624	0.537914	0.299563
N73	N	0.092730	0.663015	0.427675
N74	N	0.471302	0.587452	0.299269
N75	N	0.152135	0.504515	0.288852
N76	N	0.141875	0.624091	0.361137
N77	N	0.263965	0.626433	0.484458
N78	N	0.019064	0.505839	0.424077
N79	N	0.241674	0.503049	0.479279
N80	N	0.350052	0.625538	0.292305
Ni19	Ni	0.123593	0.687457	0.460835
Ni20	Ni	0.000082	0.562694	0.332980
O73	O	0.066374	0.586632	0.345375
O74	O	0.186836	0.662435	0.470590
O75	O	0.060984	0.713156	0.468398
O76	O	0.110670	0.658917	0.494754
O77	O	0.011659	0.535014	0.369203
O78	O	0.136843	0.715650	0.495277
O79	O	0.434298	0.540184	0.345060
O80	O	0.489517	0.590083	0.368571
C241	C	0.196249	0.501053	0.634972
C242	C	0.067224	0.746315	0.510833
C243	C	0.230654	0.616076	0.505903
C244	C	0.248496	0.594827	0.526473
C245	C	0.165767	0.592167	0.550323
C246	C	0.145408	0.613287	0.531534
C247	C	0.177667	0.626251	0.509387
C248	C	0.217413	0.523461	0.616036
C249	C	0.391593	0.744372	0.630997
C250	C	0.273023	0.510131	0.504384
C251	C	0.471990	0.745856	0.664114
C252	C	0.352444	0.506523	0.538078
C253	C	0.359027	0.627083	0.637996
C254	C	0.378059	0.648664	0.657759
C255	C	0.373964	0.723205	0.650270
C256	C	0.255653	0.530800	0.525294
C257	C	0.451597	0.723981	0.682245
C258	C	0.331877	0.526520	0.558108
C259	C	0.291727	0.658678	0.673183
C260	C	0.269906	0.638035	0.654185
C261	C	0.302683	0.621926	0.635639
C262	C	0.342788	0.725434	0.741053
C263	C	0.281327	0.599758	0.615846
C264	C	0.410241	0.652506	0.741483
H201	H	0.010455	0.630514	0.741131
H202	H	0.217850	0.540913	0.520135
H203	H	0.141263	0.581662	0.567640
H204	H	0.227175	0.634177	0.655254
H205	H	0.104763	0.620101	0.535189
H206	H	0.420710	0.652966	0.659875
H207	H	0.288950	0.587012	0.524395
H208	H	0.335672	0.713522	0.645696
H209	H	0.475289	0.715628	0.702371
H210	H	0.354031	0.533656	0.579387
H211	H	0.266734	0.671208	0.688084
H212	H	0.065184	0.506761	0.617445
H213	H	0.121294	0.523592	0.602910
H214	H	0.166518	0.737969	0.526969
H215	H	0.039329	0.746240	0.692685
H216	H	0.253953	0.737290	0.715351
H217	H	0.434582	0.611178	0.626073
H218	H	0.376831	0.595276	0.611006
N81	N	0.217375	0.584044	0.548993
N82	N	0.403668	0.713507	0.675693
N83	N	0.283593	0.538013	0.551898
N84	N	0.345052	0.663677	0.675161
N85	N	0.105868	0.507778	0.615517
N86	N	0.393417	0.611153	0.623444
Ni21	Ni	0.249772	0.561237	0.584958
Ni22	Ni	0.375262	0.688839	0.708766
O81	O	0.188828	0.535320	0.593181
O82	O	0.233893	0.590742	0.618555
O83	O	0.310092	0.587754	0.594146
O84	O	0.438163	0.665002	0.720482
O85	O	0.313484	0.713981	0.718733
O86	O	0.361262	0.660502	0.743506
O87	O	0.264137	0.533042	0.620594
O88	O	0.390261	0.716111	0.744443
C265	C	0.140527	0.744398	0.884291
C266	C	0.013270	0.503333	0.759357
C267	C	0.229052	0.736019	0.905670
C268	C	0.101023	0.510796	0.783029
C269	C	0.108249	0.632665	0.883389
C270	C	0.124193	0.653910	0.904389
C271	C	0.121592	0.723797	0.905039
C272	C	0.493850	0.523759	0.779147
C273	C	0.207177	0.716231	0.925474
C274	C	0.078788	0.532520	0.800440
C275	C	0.043297	0.652359	0.931130
C276	C	0.024879	0.631474	0.911176
C277	C	0.056660	0.620960	0.886929
C278	C	0.088673	0.724523	0.991310
C279	C	0.037773	0.598715	0.866470
C280	C	0.157982	0.649636	0.991218
C281	C	0.441159	0.506231	0.887219
C282	C	0.323172	0.747429	0.761117
C283	C	0.483516	0.621120	0.758059
C284	C	0.002511	0.599948	0.777331
C285	C	0.420536	0.595003	0.801995
C286	C	0.399146	0.617433	0.784878
C287	C	0.431396	0.630433	0.761326
C288	C	0.462042	0.527693	0.866739
H219	H	0.163350	0.663189	0.901992
H220	H	0.043106	0.592470	0.775580
H221	H	0.079329	0.718528	0.904788
H222	H	0.231739	0.704901	0.942622
H223	H	0.104442	0.545080	0.815747
H224	H	0.018943	0.660592	0.950271
H225	H	0.365766	0.501335	0.861196
H226	H	0.484839	0.742400	0.994061
H227	H	0.271619	0.740222	0.907687
H228	H	0.390966	0.747691	0.794352
H229	H	0.451696	0.528981	0.779386
H230	H	0.395278	0.583446	0.817997
H231	H	0.485760	0.623048	0.915857
H232	H	0.172669	0.514197	0.807485
H233	H	0.180739	0.630108	0.860914
H234	H	0.130704	0.607621	0.847831
H235	H	0.303163	0.621019	0.983734
H236	H	0.250634	0.642709	0.971379
H237	H	0.034089	0.521876	0.911710
H238	H	0.204703	0.511171	0.975695
H239	H	0.329804	0.615562	0.810116
H240	H	0.334854	0.641798	0.779885
N87	N	0.154069	0.710871	0.925907
N88	N	0.026624	0.537914	0.799562
N89	N	0.092730	0.663015	0.927675
N90	N	0.471302	0.587452	0.799269
N91	N	0.152135	0.504515	0.788852
N92	N	0.141875	0.624091	0.861137
N93	N	0.263965	0.626433	0.984458
N94	N	0.019064	0.505839	0.924077
N95	N	0.241674	0.503049	0.979279
N96	N	0.350052	0.625538	0.792305
Ni23	Ni	0.123593	0.687457	0.960835
Ni24	Ni	0.000082	0.562694	0.832980
O89	O	0.066374	0.586632	0.845375
O90	O	0.186836	0.662435	0.970590
O91	O	0.060984	0.713156	0.968398
O92	O	0.110670	0.658917	0.994754
O93	O	0.011659	0.535014	0.869203
O94	O	0.136843	0.715650	0.995277
O95	O	0.434298	0.540184	0.845059
O96	O	0.489517	0.590083	0.868571
C289	C	0.140527	0.994398	0.134291
C290	C	0.013270	0.753333	0.009357
C291	C	0.229052	0.986019	0.155670
C292	C	0.101023	0.760796	0.033029
C293	C	0.108249	0.882665	0.133389
C294	C	0.124193	0.903910	0.154389
C295	C	0.121592	0.973797	0.155039
C296	C	0.493850	0.773759	0.029147
C297	C	0.207177	0.966231	0.175475
C298	C	0.078788	0.782520	0.050440
C299	C	0.043297	0.902359	0.181130
C300	C	0.024879	0.881474	0.161176
C301	C	0.056660	0.870960	0.136929
C302	C	0.088673	0.974523	0.241310
C303	C	0.037773	0.848715	0.116470
C304	C	0.157982	0.899636	0.241218
C305	C	0.441159	0.756231	0.137219
C306	C	0.323172	0.997429	0.011117
C307	C	0.483516	0.871120	0.008059
C308	C	0.002511	0.849948	0.027331
C309	C	0.420536	0.845003	0.051995
C310	C	0.399146	0.867433	0.034878
C311	C	0.431396	0.880433	0.011326
C312	C	0.462042	0.777693	0.116739
H241	H	0.163350	0.913189	0.151993
H242	H	0.043106	0.842470	0.025580
H243	H	0.079329	0.968528	0.154788
H244	H	0.231739	0.954901	0.192622
H245	H	0.104442	0.795080	0.065747
H246	H	0.018943	0.910592	0.200271
H247	H	0.365766	0.751335	0.111196
H248	H	0.484839	0.992400	0.244061
H249	H	0.271619	0.990222	0.157688
H250	H	0.390966	0.997691	0.044352
H251	H	0.451696	0.778981	0.029386
H252	H	0.395278	0.833446	0.067997
H253	H	0.485760	0.873048	0.165857
H254	H	0.172669	0.764197	0.057485
H255	H	0.180739	0.880108	0.110914
H256	H	0.130704	0.857621	0.097831
H257	H	0.303163	0.871019	0.233734
H258	H	0.250634	0.892709	0.221379
H259	H	0.034089	0.771876	0.161710
H260	H	0.204703	0.761171	0.225694
H261	H	0.329804	0.865562	0.060116
H262	H	0.334854	0.891798	0.029885
N97	N	0.154069	0.960871	0.175907
N98	N	0.026624	0.787914	0.049563
N99	N	0.092730	0.913015	0.177675
N100	N	0.471302	0.837452	0.049269
N101	N	0.152135	0.754515	0.038852
N102	N	0.141875	0.874091	0.111137
N103	N	0.263965	0.876433	0.234458
N104	N	0.019064	0.755839	0.174077
N105	N	0.241674	0.753049	0.229279
N106	N	0.350052	0.875538	0.042305
Ni25	Ni	0.123593	0.937457	0.210835
Ni26	Ni	0.000082	0.812694	0.082980
O97	O	0.066374	0.836632	0.095375
O98	O	0.186836	0.912435	0.220590
O99	O	0.060984	0.963156	0.218397
O100	O	0.110670	0.908917	0.244755
O101	O	0.011659	0.785014	0.119203
O102	O	0.136843	0.965650	0.245277
O103	O	0.434298	0.790184	0.095060
O104	O	0.489517	0.840083	0.118571
C313	C	0.196249	0.751053	0.384972
C314	C	0.067224	0.996315	0.260833
C315	C	0.230654	0.866076	0.255903
C316	C	0.248496	0.844827	0.276473
C317	C	0.165767	0.842167	0.300323
C318	C	0.145408	0.863287	0.281534
C319	C	0.177667	0.876251	0.259387
C320	C	0.217413	0.773461	0.366036
C321	C	0.391593	0.994372	0.380997
C322	C	0.273023	0.760131	0.254384
C323	C	0.471990	0.995856	0.414114
C324	C	0.352444	0.756523	0.288078
C325	C	0.359027	0.877083	0.387996
C326	C	0.378059	0.898664	0.407759
C327	C	0.373964	0.973205	0.400270
C328	C	0.255653	0.780800	0.275294
C329	C	0.451597	0.973981	0.432245
C330	C	0.331877	0.776520	0.308108
C331	C	0.291727	0.908678	0.423183
C332	C	0.269906	0.888035	0.404185
C333	C	0.302683	0.871926	0.385639
C334	C	0.342788	0.975434	0.491053
C335	C	0.281327	0.849758	0.365847
C336	C	0.410241	0.902506	0.491482
H263	H	0.010455	0.880514	0.491131
H264	H	0.217850	0.790913	0.270135
H265	H	0.141263	0.831662	0.317640
H266	H	0.227175	0.884177	0.405254
H267	H	0.104763	0.870101	0.285189
H268	H	0.420710	0.902966	0.409875
H269	H	0.288950	0.837012	0.274395
H270	H	0.335672	0.963522	0.395696
H271	H	0.475289	0.965628	0.452371
H272	H	0.354031	0.783656	0.329387
H273	H	0.266734	0.921208	0.438084
H274	H	0.065184	0.756761	0.367445
H275	H	0.121294	0.773592	0.352910
H276	H	0.166518	0.987969	0.276969
H277	H	0.039329	0.996240	0.442685
H278	H	0.253953	0.987290	0.465351
H279	H	0.434582	0.861178	0.376073
H280	H	0.376831	0.845276	0.361006
N107	N	0.217375	0.834044	0.298993
N108	N	0.403668	0.963507	0.425693
N109	N	0.283593	0.788013	0.301899
N110	N	0.345052	0.913677	0.425161
N111	N	0.105868	0.757778	0.365517
N112	N	0.393417	0.861153	0.373445
Ni27	Ni	0.249772	0.811237	0.334958
Ni28	Ni	0.375262	0.938839	0.458766
O105	O	0.188828	0.785320	0.343181
O106	O	0.233893	0.840742	0.368555
O107	O	0.310092	0.837754	0.344146
O108	O	0.438163	0.915002	0.470482
O109	O	0.313484	0.963981	0.468733
O110	O	0.361262	0.910502	0.493506
O111	O	0.264137	0.783042	0.370594
O112	O	0.390261	0.966111	0.494443
C337	C	0.140527	0.994398	0.634291
C338	C	0.013270	0.753333	0.509357
C339	C	0.229052	0.986019	0.655670
C340	C	0.101023	0.760796	0.533029
C341	C	0.108249	0.882665	0.633389
C342	C	0.124193	0.903910	0.654389
C343	C	0.121592	0.973797	0.655039
C344	C	0.493850	0.773759	0.529147
C345	C	0.207177	0.966231	0.675474
C346	C	0.078788	0.782520	0.550440
C347	C	0.043297	0.902359	0.681130
C348	C	0.024879	0.881474	0.661176
C349	C	0.056660	0.870960	0.636929
C350	C	0.088673	0.974523	0.741310
C351	C	0.037773	0.848715	0.616470
C352	C	0.157982	0.899636	0.741218
C353	C	0.441159	0.756231	0.637219
C354	C	0.323172	0.997429	0.511117
C355	C	0.483516	0.871120	0.508059
C356	C	0.002511	0.849948	0.527331
C357	C	0.420536	0.845003	0.551995
C358	C	0.399146	0.867433	0.534878
C359	C	0.431396	0.880433	0.511326
C360	C	0.462042	0.777693	0.616739
H281	H	0.163350	0.913189	0.651992
H282	H	0.043106	0.842470	0.525580
H283	H	0.079329	0.968528	0.654788
H284	H	0.231739	0.954901	0.692622
H285	H	0.104442	0.795080	0.565747
H286	H	0.018943	0.910592	0.700271
H287	H	0.365766	0.751335	0.611196
H288	H	0.484839	0.992400	0.744061
H289	H	0.271619	0.990222	0.657687
H290	H	0.390966	0.997691	0.544352
H291	H	0.451696	0.778981	0.529386
H292	H	0.395278	0.833446	0.567997
H293	H	0.485760	0.873048	0.665857
H294	H	0.172669	0.764197	0.557485
H295	H	0.180739	0.880108	0.610914
H296	H	0.130704	0.857621	0.597831
H297	H	0.303163	0.871019	0.733734
H298	H	0.250634	0.892709	0.721379
H299	H	0.034089	0.771876	0.661710
H300	H	0.204703	0.761171	0.725695
H301	H	0.329804	0.865562	0.560116
H302	H	0.334854	0.891798	0.529885
N113	N	0.154069	0.960871	0.675907
N114	N	0.026624	0.787914	0.549562
N115	N	0.092730	0.913015	0.677675
N116	N	0.471302	0.837452	0.549269
N117	N	0.152135	0.754515	0.538852
N118	N	0.141875	0.874091	0.611137
N119	N	0.263965	0.876433	0.734458
N120	N	0.019064	0.755839	0.674077
N121	N	0.241674	0.753049	0.729279
N122	N	0.350052	0.875538	0.542305
Ni29	Ni	0.123593	0.937457	0.710835
Ni30	Ni	0.000082	0.812694	0.582980
O113	O	0.066374	0.836632	0.595375
O114	O	0.186836	0.912435	0.720590
O115	O	0.060984	0.963156	0.718398
O116	O	0.110670	0.908917	0.744754
O117	O	0.011659	0.785014	0.619203
O118	O	0.136843	0.965650	0.745277
O119	O	0.434298	0.790184	0.595059
O120	O	0.489517	0.840083	0.618571
C361	C	0.196249	0.751053	0.884972
C362	C	0.067224	0.996315	0.760833
C363	C	0.230654	0.866076	0.755903
C364	C	0.248496	0.844827	0.776473
C365	C	0.165767	0.842167	0.800323
C366	C	0.145408	0.863287	0.781534
C367	C	0.177667	0.876251	0.759387
C368	C	0.217413	0.773461	0.866036
C369	C	0.391593	0.994372	0.880997
C370	C	0.273023	0.760131	0.754384
C371	C	0.471990	0.995856	0.914114
C372	C	0.352444	0.756523	0.788078
C373	C	0.359027	0.877083	0.887996
C374	C	0.378059	0.898664	0.907759
C375	C	0.373964	0.973205	0.900270
C376	C	0.255653	0.780800	0.775294
C377	C	0.451597	0.973981	0.932245
C378	C	0.331877	0.776520	0.808108
C379	C	0.291727	0.908678	0.923183
C380	C	0.269906	0.888035	0.904185
C381	C	0.302683	0.871926	0.885639
C382	C	0.342788	0.975434	0.991053
C383	C	0.281327	0.849758	0.865846
C384	C	0.410241	0.902506	0.991483
H303	H	0.010455	0.880514	0.991131
H304	H	0.217850	0.790913	0.770135
H305	H	0.141263	0.831662	0.817640
H306	H	0.227175	0.884177	0.905254
H307	H	0.104763	0.870101	0.785189
H308	H	0.420710	0.902966	0.909875
H309	H	0.288950	0.837012	0.774395
H310	H	0.335672	0.963522	0.895696
H311	H	0.475289	0.965628	0.952371
H312	H	0.354031	0.783656	0.829387
H313	H	0.266734	0.921208	0.938084
H314	H	0.065184	0.756761	0.867445
H315	H	0.121294	0.773592	0.852910
H316	H	0.166518	0.987969	0.776969
H317	H	0.039329	0.996240	0.942685
H318	H	0.253953	0.987290	0.965351
H319	H	0.434582	0.861178	0.876073
H320	H	0.376831	0.845276	0.861006
N123	N	0.217375	0.834044	0.798993
N124	N	0.403668	0.963507	0.925693
N125	N	0.283593	0.788013	0.801898
N126	N	0.345052	0.913677	0.925161
N127	N	0.105868	0.757778	0.865517
N128	N	0.393417	0.861153	0.873444
Ni31	Ni	0.249772	0.811237	0.834958
Ni32	Ni	0.375262	0.938839	0.958766
O121	O	0.188828	0.785320	0.843181
O122	O	0.233893	0.840742	0.868555
O123	O	0.310092	0.837754	0.844146
O124	O	0.438163	0.915002	0.970482
O125	O	0.313484	0.963981	0.968733
O126	O	0.361262	0.910502	0.993506
O127	O	0.264137	0.783042	0.870594
O128	O	0.390261	0.966111	0.994443
C385	C	0.696249	0.001053	0.134971
C386	C	0.567223	0.246315	0.010833
C387	C	0.730654	0.116076	0.005903
C388	C	0.748495	0.094827	0.026473
C389	C	0.665767	0.092166	0.050323
C390	C	0.645408	0.113287	0.031534
C391	C	0.677667	0.126251	0.009388
C392	C	0.717413	0.023461	0.116037
C393	C	0.891593	0.244372	0.130997
C394	C	0.773023	0.010131	0.004384
C395	C	0.971990	0.245856	0.164114
C396	C	0.852444	0.006523	0.038078
C397	C	0.859028	0.127083	0.137996
C398	C	0.878059	0.148664	0.157759
C399	C	0.873964	0.223205	0.150270
C400	C	0.755653	0.030800	0.025294
C401	C	0.951597	0.223981	0.182245
C402	C	0.831877	0.026520	0.058108
C403	C	0.791727	0.158677	0.173183
C404	C	0.769907	0.138035	0.154186
C405	C	0.802683	0.121926	0.135639
C406	C	0.842788	0.225434	0.241053
C407	C	0.781327	0.099758	0.115847
C408	C	0.910241	0.152506	0.241482
H321	H	0.510455	0.130514	0.241131
H322	H	0.717850	0.040913	0.020136
H323	H	0.641263	0.081661	0.067640
H324	H	0.727175	0.134177	0.155254
H325	H	0.604763	0.120101	0.035189
H326	H	0.920710	0.152966	0.159875
H327	H	0.788950	0.087012	0.024395
H328	H	0.835672	0.213522	0.145696
H329	H	0.975289	0.215628	0.202371
H330	H	0.854031	0.033656	0.079387
H331	H	0.766733	0.171208	0.188084
H332	H	0.565184	0.006761	0.117445
H333	H	0.621294	0.023592	0.102910
H334	H	0.666517	0.237969	0.026969
H335	H	0.539328	0.246240	0.192685
H336	H	0.753953	0.237290	0.215351
H337	H	0.934582	0.111178	0.126073
H338	H	0.876831	0.095277	0.111006
N129	N	0.717375	0.084044	0.048993
N130	N	0.903668	0.213507	0.175693
N131	N	0.783593	0.038013	0.051899
N132	N	0.845052	0.163677	0.175161
N133	N	0.605868	0.007778	0.115517
N134	N	0.893417	0.111153	0.123444
Ni33	Ni	0.749772	0.061237	0.084958
Ni34	Ni	0.875263	0.188839	0.208766
O129	O	0.688828	0.035320	0.093181
O130	O	0.733893	0.090742	0.118555
O131	O	0.810092	0.087753	0.094146
O132	O	0.938163	0.165002	0.220482
O133	O	0.813484	0.213981	0.218733
O134	O	0.861262	0.160502	0.243506
O135	O	0.764137	0.033043	0.120594
O136	O	0.890261	0.216111	0.244443
C409	C	0.640527	0.244398	0.384291
C410	C	0.513270	0.003334	0.259357
C411	C	0.729052	0.236018	0.405670
C412	C	0.601023	0.010796	0.283029
C413	C	0.608249	0.132665	0.383389
C414	C	0.624193	0.153910	0.404389
C415	C	0.621592	0.223797	0.405039
C416	C	0.993850	0.023759	0.279147
C417	C	0.707177	0.216231	0.425474
C418	C	0.578788	0.032520	0.300440
C419	C	0.543297	0.152359	0.431130
C420	C	0.524879	0.131474	0.411176
C421	C	0.556660	0.120960	0.386929
C422	C	0.588673	0.224523	0.491310
C423	C	0.537772	0.098715	0.366470
C424	C	0.657982	0.149636	0.491218
C425	C	0.941159	0.006231	0.387219
C426	C	0.823171	0.247429	0.261117
C427	C	0.983516	0.121120	0.258059
C428	C	0.502511	0.099948	0.277331
C429	C	0.920536	0.095003	0.301995
C430	C	0.899146	0.117433	0.284878
C431	C	0.931396	0.130433	0.261326
C432	C	0.962042	0.027693	0.366739
H339	H	0.663350	0.163189	0.401992
H340	H	0.543106	0.092470	0.275580
H341	H	0.579330	0.218528	0.404788
H342	H	0.731739	0.204901	0.442622
H343	H	0.604442	0.045080	0.315747
H344	H	0.518943	0.160592	0.450271
H345	H	0.865766	0.001335	0.361196
H346	H	0.984838	0.242400	0.494061
H347	H	0.771619	0.240222	0.407687
H348	H	0.890966	0.247691	0.294352
H349	H	0.951696	0.028981	0.279386
H350	H	0.895278	0.083447	0.317997
H351	H	0.985760	0.123048	0.415857
H352	H	0.672669	0.014198	0.307485
H353	H	0.680740	0.130108	0.360914
H354	H	0.630704	0.107621	0.347831
H355	H	0.803163	0.121019	0.483734
H356	H	0.750633	0.142709	0.471379
H357	H	0.534088	0.021876	0.411710
H358	H	0.704703	0.011171	0.475695
H359	H	0.829804	0.115562	0.310116
H360	H	0.834855	0.141798	0.279885
N135	N	0.654069	0.210871	0.425907
N136	N	0.526624	0.037914	0.299563
N137	N	0.592731	0.163015	0.427675
N138	N	0.971302	0.087452	0.299269
N139	N	0.652135	0.004515	0.288852
N140	N	0.641876	0.124091	0.361137
N141	N	0.763965	0.126434	0.484458
N142	N	0.519064	0.005839	0.424077
N143	N	0.741675	0.003049	0.479279
N144	N	0.850051	0.125538	0.292305
Ni35	Ni	0.623593	0.187457	0.460835
Ni36	Ni	0.500082	0.062694	0.332980
O137	O	0.566374	0.086632	0.345375
O138	O	0.686836	0.162435	0.470590
O139	O	0.560983	0.213155	0.468398
O140	O	0.610669	0.158917	0.494754
O141	O	0.511660	0.035014	0.369203
O142	O	0.636843	0.215649	0.495277
O143	O	0.934298	0.040183	0.345060
O144	O	0.989518	0.090083	0.368571
C433	C	0.696249	0.001053	0.634972
C434	C	0.567223	0.246315	0.510833
C435	C	0.730654	0.116076	0.505903
C436	C	0.748495	0.094827	0.526473
C437	C	0.665767	0.092166	0.550323
C438	C	0.645408	0.113287	0.531534
C439	C	0.677667	0.126251	0.509387
C440	C	0.717413	0.023461	0.616036
C441	C	0.891593	0.244372	0.630997
C442	C	0.773023	0.010131	0.504384
C443	C	0.971990	0.245856	0.664114
C444	C	0.852444	0.006523	0.538078
C445	C	0.859028	0.127083	0.637996
C446	C	0.878059	0.148664	0.657759
C447	C	0.873964	0.223205	0.650270
C448	C	0.755653	0.030800	0.525294
C449	C	0.951597	0.223981	0.682245
C450	C	0.831877	0.026520	0.558108
C451	C	0.791727	0.158677	0.673183
C452	C	0.769907	0.138035	0.654185
C453	C	0.802683	0.121926	0.635639
C454	C	0.842788	0.225434	0.741053
C455	C	0.781327	0.099758	0.615846
C456	C	0.910241	0.152506	0.741483
H361	H	0.510455	0.130514	0.741131
H362	H	0.717850	0.040913	0.520135
H363	H	0.641263	0.081661	0.567640
H364	H	0.727175	0.134177	0.655254
H365	H	0.604763	0.120101	0.535189
H366	H	0.920710	0.152966	0.659875
H367	H	0.788950	0.087012	0.524395
H368	H	0.835672	0.213522	0.645696
H369	H	0.975289	0.215628	0.702371
H370	H	0.854031	0.033656	0.579387
H371	H	0.766733	0.171208	0.688084
H372	H	0.565184	0.006761	0.617445
H373	H	0.621294	0.023592	0.602910
H374	H	0.666517	0.237969	0.526969
H375	H	0.539328	0.246240	0.692685
H376	H	0.753953	0.237290	0.715351
H377	H	0.934582	0.111178	0.626073
H378	H	0.876831	0.095277	0.611006
N145	N	0.717375	0.084044	0.548993
N146	N	0.903668	0.213507	0.675693
N147	N	0.783593	0.038013	0.551898
N148	N	0.845052	0.163677	0.675161
N149	N	0.605868	0.007778	0.615517
N150	N	0.893417	0.111153	0.623444
Ni37	Ni	0.749772	0.061237	0.584958
Ni38	Ni	0.875263	0.188839	0.708766
O145	O	0.688828	0.035320	0.593181
O146	O	0.733893	0.090742	0.618555
O147	O	0.810092	0.087753	0.594146
O148	O	0.938163	0.165002	0.720482
O149	O	0.813484	0.213981	0.718733
O150	O	0.861262	0.160502	0.743506
O151	O	0.764137	0.033043	0.620594
O152	O	0.890261	0.216111	0.744443
C457	C	0.640527	0.244398	0.884291
C458	C	0.513270	0.003334	0.759357
C459	C	0.729052	0.236018	0.905670
C460	C	0.601023	0.010796	0.783029
C461	C	0.608249	0.132665	0.883389
C462	C	0.624193	0.153910	0.904389
C463	C	0.621592	0.223797	0.905039
C464	C	0.993850	0.023759	0.779147
C465	C	0.707177	0.216231	0.925474
C466	C	0.578788	0.032520	0.800440
C467	C	0.543297	0.152359	0.931130
C468	C	0.524879	0.131474	0.911176
C469	C	0.556660	0.120960	0.886929
C470	C	0.588673	0.224523	0.991310
C471	C	0.537772	0.098715	0.866470
C472	C	0.657982	0.149636	0.991218
C473	C	0.941159	0.006231	0.887219
C474	C	0.823171	0.247429	0.761117
C475	C	0.983516	0.121120	0.758059
C476	C	0.502511	0.099948	0.777331
C477	C	0.920536	0.095003	0.801995
C478	C	0.899146	0.117433	0.784878
C479	C	0.931396	0.130433	0.761326
C480	C	0.962042	0.027693	0.866739
H379	H	0.663350	0.163189	0.901992
H380	H	0.543106	0.092470	0.775580
H381	H	0.579330	0.218528	0.904788
H382	H	0.731739	0.204901	0.942622
H383	H	0.604442	0.045080	0.815747
H384	H	0.518943	0.160592	0.950271
H385	H	0.865766	0.001335	0.861196
H386	H	0.984838	0.242400	0.994061
H387	H	0.771619	0.240222	0.907687
H388	H	0.890966	0.247691	0.794352
H389	H	0.951696	0.028981	0.779386
H390	H	0.895278	0.083447	0.817997
H391	H	0.985760	0.123048	0.915857
H392	H	0.672669	0.014198	0.807485
H393	H	0.680740	0.130108	0.860914
H394	H	0.630704	0.107621	0.847831
H395	H	0.803163	0.121019	0.983734
H396	H	0.750633	0.142709	0.971379
H397	H	0.534088	0.021876	0.911710
H398	H	0.704703	0.011171	0.975695
H399	H	0.829804	0.115562	0.810116
H400	H	0.834855	0.141798	0.779885
N151	N	0.654069	0.210871	0.925907
N152	N	0.526624	0.037914	0.799562
N153	N	0.592731	0.163015	0.927675
N154	N	0.971302	0.087452	0.799269
N155	N	0.652135	0.004515	0.788852
N156	N	0.641876	0.124091	0.861137
N157	N	0.763965	0.126434	0.984458
N158	N	0.519064	0.005839	0.924077
N159	N	0.741675	0.003049	0.979279
N160	N	0.850051	0.125538	0.792305
Ni39	Ni	0.623593	0.187457	0.960835
Ni40	Ni	0.500082	0.062694	0.832980
O153	O	0.566374	0.086632	0.845375
O154	O	0.686836	0.162435	0.970590
O155	O	0.560983	0.213155	0.968398
O156	O	0.610669	0.158917	0.994754
O157	O	0.511660	0.035014	0.869203
O158	O	0.636843	0.215649	0.995277
O159	O	0.934298	0.040183	0.845059
O160	O	0.989518	0.090083	0.868571
C481	C	0.640527	0.494398	0.134291
C482	C	0.513270	0.253333	0.009357
C483	C	0.729052	0.486019	0.155670
C484	C	0.601023	0.260796	0.033029
C485	C	0.608249	0.382665	0.133389
C486	C	0.624193	0.403910	0.154389
C487	C	0.621592	0.473797	0.155039
C488	C	0.993850	0.273759	0.029147
C489	C	0.707177	0.466231	0.175475
C490	C	0.578788	0.282520	0.050440
C491	C	0.543297	0.402359	0.181130
C492	C	0.524879	0.381474	0.161176
C493	C	0.556660	0.370960	0.136929
C494	C	0.588673	0.474523	0.241310
C495	C	0.537772	0.348716	0.116470
C496	C	0.657982	0.399636	0.241218
C497	C	0.941159	0.256231	0.137219
C498	C	0.823171	0.497429	0.011117
C499	C	0.983516	0.371120	0.008059
C500	C	0.502511	0.349948	0.027331
C501	C	0.920536	0.345003	0.051995
C502	C	0.899146	0.367433	0.034878
C503	C	0.931396	0.380433	0.011326
C504	C	0.962042	0.277693	0.116739
H401	H	0.663350	0.413189	0.151993
H402	H	0.543106	0.342470	0.025580
H403	H	0.579330	0.468528	0.154788
H404	H	0.731739	0.454901	0.192622
H405	H	0.604442	0.295080	0.065747
H406	H	0.518943	0.410592	0.200271
H407	H	0.865766	0.251335	0.111196
H408	H	0.984838	0.492400	0.244061
H409	H	0.771619	0.490222	0.157688
H410	H	0.890966	0.497691	0.044352
H411	H	0.951696	0.278981	0.029386
H412	H	0.895278	0.333446	0.067997
H413	H	0.985760	0.373048	0.165857
H414	H	0.672669	0.264197	0.057485
H415	H	0.680740	0.380108	0.110914
H416	H	0.630704	0.357621	0.097831
H417	H	0.803163	0.371019	0.233734
H418	H	0.750633	0.392709	0.221379
H419	H	0.534088	0.271876	0.161710
H420	H	0.704703	0.261171	0.225694
H421	H	0.829804	0.365562	0.060116
H422	H	0.834855	0.391798	0.029885
N161	N	0.654069	0.460871	0.175907
N162	N	0.526624	0.287913	0.049563
N163	N	0.592731	0.413015	0.177675
N164	N	0.971302	0.337452	0.049269
N165	N	0.652135	0.254515	0.038852
N166	N	0.641876	0.374091	0.111137
N167	N	0.763965	0.376433	0.234458
N168	N	0.519064	0.255839	0.174077
N169	N	0.741675	0.253049	0.229279
N170	N	0.850051	0.375538	0.042305
Ni41	Ni	0.623593	0.437457	0.210835
Ni42	Ni	0.500082	0.312694	0.082980
O161	O	0.566374	0.336632	0.095375
O162	O	0.686836	0.412435	0.220590
O163	O	0.560983	0.463155	0.218397
O164	O	0.610669	0.408917	0.244755
O165	O	0.511660	0.285015	0.119203
O166	O	0.636843	0.465649	0.245277
O167	O	0.934298	0.290183	0.095060
O168	O	0.989518	0.340083	0.118571
C505	C	0.696249	0.251053	0.384972
C506	C	0.567223	0.496315	0.260833
C507	C	0.730654	0.366076	0.255903
C508	C	0.748495	0.344827	0.276473
C509	C	0.665767	0.342166	0.300323
C510	C	0.645408	0.363287	0.281534
C511	C	0.677667	0.376251	0.259387
C512	C	0.717413	0.273461	0.366036
C513	C	0.891593	0.494372	0.380997
C514	C	0.773023	0.260131	0.254384
C515	C	0.971990	0.495856	0.414114
C516	C	0.852444	0.256523	0.288078
C517	C	0.859028	0.377083	0.387996
C518	C	0.878059	0.398664	0.407759
C519	C	0.873964	0.473205	0.400270
C520	C	0.755653	0.280800	0.275294
C521	C	0.951597	0.473981	0.432245
C522	C	0.831877	0.276520	0.308108
C523	C	0.791727	0.408678	0.423183
C524	C	0.769907	0.388035	0.404185
C525	C	0.802683	0.371926	0.385639
C526	C	0.842788	0.475434	0.491053
C527	C	0.781327	0.349758	0.365847
C528	C	0.910241	0.402506	0.491482
H423	H	0.510455	0.380514	0.491131
H424	H	0.717850	0.290913	0.270135
H425	H	0.641263	0.331661	0.317640
H426	H	0.727175	0.384177	0.405254
H427	H	0.604763	0.370101	0.285189
H428	H	0.920710	0.402966	0.409875
H429	H	0.788950	0.337012	0.274395
H430	H	0.835672	0.463522	0.395696
H431	H	0.975289	0.465628	0.452371
H432	H	0.854031	0.283656	0.329387
H433	H	0.766733	0.421208	0.438084
H434	H	0.565184	0.256761	0.367445
H435	H	0.621294	0.273592	0.352910
H436	H	0.666517	0.487969	0.276969
H437	H	0.539328	0.496240	0.442685
H438	H	0.753953	0.487290	0.465351
H439	H	0.934582	0.361178	0.376073
H440	H	0.876831	0.345276	0.361006
N171	N	0.717375	0.334044	0.298993
N172	N	0.903668	0.463507	0.425693
N173	N	0.783593	0.288013	0.301899
N174	N	0.845052	0.413677	0.425161
N175	N	0.605868	0.257778	0.365517
N176	N	0.893417	0.361153	0.373445
Ni43	Ni	0.749772	0.311237	0.334958
Ni44	Ni	0.875263	0.438839	0.458766
O169	O	0.688828	0.285320	0.343181
O170	O	0.733893	0.340742	0.368555
O171	O	0.810092	0.337753	0.344146
O172	O	0.938163	0.415002	0.470482
O173	O	0.813484	0.463981	0.468733
O174	O	0.861262	0.410502	0.493506
O175	O	0.764137	0.283042	0.370594
O176	O	0.890261	0.466111	0.494443
C529	C	0.640527	0.494398	0.634291
C530	C	0.513270	0.253333	0.509357
C531	C	0.729052	0.486019	0.655670
C532	C	0.601023	0.260796	0.533029
C533	C	0.608249	0.382665	0.633389
C534	C	0.624193	0.403910	0.654389
C535	C	0.621592	0.473797	0.655039
C536	C	0.993850	0.273759	0.529147
C537	C	0.707177	0.466231	0.675474
C538	C	0.578788	0.282520	0.550440
C539	C	0.543297	0.402359	0.681130
C540	C	0.524879	0.381474	0.661176
C541	C	0.556660	0.370960	0.636929
C542	C	0.588673	0.474523	0.741310
C543	C	0.537772	0.348716	0.616470
C544	C	0.657982	0.399636	0.741218
C545	C	0.941159	0.256231	0.637219
C546	C	0.823171	0.497429	0.511117
C547	C	0.983516	0.371120	0.508059
C548	C	0.502511	0.349948	0.527331
C549	C	0.920536	0.345003	0.551995
C550	C	0.899146	0.367433	0.534878
C551	C	0.931396	0.380433	0.511326
C552	C	0.962042	0.277693	0.616739
H441	H	0.663350	0.413189	0.651992
H442	H	0.543106	0.342470	0.525580
H443	H	0.579330	0.468528	0.654788
H444	H	0.731739	0.454901	0.692622
H445	H	0.604442	0.295080	0.565747
H446	H	0.518943	0.410592	0.700271
H447	H	0.865766	0.251335	0.611196
H448	H	0.984838	0.492400	0.744061
H449	H	0.771619	0.490222	0.657687
H450	H	0.890966	0.497691	0.544352
H451	H	0.951696	0.278981	0.529386
H452	H	0.895278	0.333446	0.567997
H453	H	0.985760	0.373048	0.665857
H454	H	0.672669	0.264197	0.557485
H455	H	0.680740	0.380108	0.610914
H456	H	0.630704	0.357621	0.597831
H457	H	0.803163	0.371019	0.733734
H458	H	0.750633	0.392709	0.721379
H459	H	0.534088	0.271876	0.661710
H460	H	0.704703	0.261171	0.725695
H461	H	0.829804	0.365562	0.560116
H462	H	0.834855	0.391798	0.529885
N177	N	0.654069	0.460871	0.675907
N178	N	0.526624	0.287913	0.549562
N179	N	0.592731	0.413015	0.677675
N180	N	0.971302	0.337452	0.549269
N181	N	0.652135	0.254515	0.538852
N182	N	0.641876	0.374091	0.611137
N183	N	0.763965	0.376433	0.734458
N184	N	0.519064	0.255839	0.674077
N185	N	0.741675	0.253049	0.729279
N186	N	0.850051	0.375538	0.542305
Ni45	Ni	0.623593	0.437457	0.710835
Ni46	Ni	0.500082	0.312694	0.582980
O177	O	0.566374	0.336632	0.595375
O178	O	0.686836	0.412435	0.720590
O179	O	0.560983	0.463155	0.718398
O180	O	0.610669	0.408917	0.744754
O181	O	0.511660	0.285015	0.619203
O182	O	0.636843	0.465649	0.745277
O183	O	0.934298	0.290183	0.595059
O184	O	0.989518	0.340083	0.618571
C553	C	0.696249	0.251053	0.884972
C554	C	0.567223	0.496315	0.760833
C555	C	0.730654	0.366076	0.755903
C556	C	0.748495	0.344827	0.776473
C557	C	0.665767	0.342166	0.800323
C558	C	0.645408	0.363287	0.781534
C559	C	0.677667	0.376251	0.759387
C560	C	0.717413	0.273461	0.866036
C561	C	0.891593	0.494372	0.880997
C562	C	0.773023	0.260131	0.754384
C563	C	0.971990	0.495856	0.914114
C564	C	0.852444	0.256523	0.788078
C565	C	0.859028	0.377083	0.887996
C566	C	0.878059	0.398664	0.907759
C567	C	0.873964	0.473205	0.900270
C568	C	0.755653	0.280800	0.775294
C569	C	0.951597	0.473981	0.932245
C570	C	0.831877	0.276520	0.808108
C571	C	0.791727	0.408678	0.923183
C572	C	0.769907	0.388035	0.904185
C573	C	0.802683	0.371926	0.885639
C574	C	0.842788	0.475434	0.991053
C575	C	0.781327	0.349758	0.865846
C576	C	0.910241	0.402506	0.991483
H463	H	0.510455	0.380514	0.991131
H464	H	0.717850	0.290913	0.770135
H465	H	0.641263	0.331661	0.817640
H466	H	0.727175	0.384177	0.905254
H467	H	0.604763	0.370101	0.785189
H468	H	0.920710	0.402966	0.909875
H469	H	0.788950	0.337012	0.774395
H470	H	0.835672	0.463522	0.895696
H471	H	0.975289	0.465628	0.952371
H472	H	0.854031	0.283656	0.829387
H473	H	0.766733	0.421208	0.938084
H474	H	0.565184	0.256761	0.867445
H475	H	0.621294	0.273592	0.852910
H476	H	0.666517	0.487969	0.776969
H477	H	0.539328	0.496240	0.942685
H478	H	0.753953	0.487290	0.965351
H479	H	0.934582	0.361178	0.876073
H480	H	0.876831	0.345276	0.861006
N187	N	0.717375	0.334044	0.798993
N188	N	0.903668	0.463507	0.925693
N189	N	0.783593	0.288013	0.801898
N190	N	0.845052	0.413677	0.925161
N191	N	0.605868	0.257778	0.865517
N192	N	0.893417	0.361153	0.873444
Ni47	Ni	0.749772	0.311237	0.834958
Ni48	Ni	0.875263	0.438839	0.958766
O185	O	0.688828	0.285320	0.843181
O186	O	0.733893	0.340742	0.868555
O187	O	0.810092	0.337753	0.844146
O188	O	0.938163	0.415002	0.970482
O189	O	0.813484	0.463981	0.968733
O190	O	0.861262	0.410502	0.993506
O191	O	0.764137	0.283042	0.870594
O192	O	0.890261	0.466111	0.994443
C577	C	0.696249	0.501053	0.134971
C578	C	0.567223	0.746315	0.010833
C579	C	0.730654	0.616076	0.005903
C580	C	0.748495	0.594827	0.026473
C581	C	0.665767	0.592167	0.050323
C582	C	0.645408	0.613287	0.031534
C583	C	0.677667	0.626251	0.009388
C584	C	0.717413	0.523461	0.116037
C585	C	0.891593	0.744372	0.130997
C586	C	0.773023	0.510131	0.004384
C587	C	0.971990	0.745856	0.164114
C588	C	0.852444	0.506523	0.038078
C589	C	0.859028	0.627083	0.137996
C590	C	0.878059	0.648664	0.157759
C591	C	0.873964	0.723205	0.150270
C592	C	0.755653	0.530800	0.025294
C593	C	0.951597	0.723981	0.182245
C594	C	0.831877	0.526520	0.058108
C595	C	0.791727	0.658678	0.173183
C596	C	0.769907	0.638035	0.154186
C597	C	0.802683	0.621926	0.135639
C598	C	0.842788	0.725434	0.241053
C599	C	0.781327	0.599758	0.115847
C600	C	0.910241	0.652506	0.241482
H481	H	0.510455	0.630514	0.241131
H482	H	0.717850	0.540913	0.020136
H483	H	0.641263	0.581662	0.067640
H484	H	0.727175	0.634177	0.155254
H485	H	0.604763	0.620101	0.035189
H486	H	0.920710	0.652966	0.159875
H487	H	0.788950	0.587012	0.024395
H488	H	0.835672	0.713522	0.145696
H489	H	0.975289	0.715628	0.202371
H490	H	0.854031	0.533656	0.079387
H491	H	0.766733	0.671208	0.188084
H492	H	0.565184	0.506761	0.117445
H493	H	0.621294	0.523592	0.102910
H494	H	0.666517	0.737969	0.026969
H495	H	0.539328	0.746240	0.192685
H496	H	0.753953	0.737290	0.215351
H497	H	0.934582	0.611178	0.126073
H498	H	0.876831	0.595276	0.111006
N193	N	0.717375	0.584044	0.048993
N194	N	0.903668	0.713507	0.175693
N195	N	0.783593	0.538013	0.051899
N196	N	0.845052	0.663677	0.175161
N197	N	0.605868	0.507778	0.115517
N198	N	0.893417	0.611153	0.123444
Ni49	Ni	0.749772	0.561237	0.084958
Ni50	Ni	0.875263	0.688839	0.208766
O193	O	0.688828	0.535320	0.093181
O194	O	0.733893	0.590742	0.118555
O195	O	0.810092	0.587754	0.094146
O196	O	0.938163	0.665002	0.220482
O197	O	0.813484	0.713981	0.218733
O198	O	0.861262	0.660502	0.243506
O199	O	0.764137	0.533042	0.120594
O200	O	0.890261	0.716111	0.244443
C601	C	0.640527	0.744398	0.384291
C602	C	0.513270	0.503333	0.259357
C603	C	0.729052	0.736019	0.405670
C604	C	0.601023	0.510796	0.283029
C605	C	0.608249	0.632665	0.383389
C606	C	0.624193	0.653910	0.404389
C607	C	0.621592	0.723797	0.405039
C608	C	0.993850	0.523759	0.279147
C609	C	0.707177	0.716231	0.425474
C610	C	0.578788	0.532520	0.300440
C611	C	0.543297	0.652359	0.431130
C612	C	0.524879	0.631474	0.411176
C613	C	0.556660	0.620960	0.386929
C614	C	0.588673	0.724523	0.491310
C615	C	0.537772	0.598715	0.366470
C616	C	0.657982	0.649636	0.491218
C617	C	0.941159	0.506231	0.387219
C618	C	0.823171	0.747429	0.261117
C619	C	0.983516	0.621120	0.258059
C620	C	0.502511	0.599948	0.277331
C621	C	0.920536	0.595003	0.301995
C622	C	0.899146	0.617433	0.284878
C623	C	0.931396	0.630433	0.261326
C624	C	0.962042	0.527693	0.366739
H499	H	0.663350	0.663189	0.401992
H500	H	0.543106	0.592470	0.275580
H501	H	0.579330	0.718528	0.404788
H502	H	0.731739	0.704901	0.442622
H503	H	0.604442	0.545080	0.315747
H504	H	0.518943	0.660592	0.450271
H505	H	0.865766	0.501335	0.361196
H506	H	0.984838	0.742400	0.494061
H507	H	0.771619	0.740222	0.407687
H508	H	0.890966	0.747691	0.294352
H509	H	0.951696	0.528981	0.279386
H510	H	0.895278	0.583446	0.317997
H511	H	0.985760	0.623048	0.415857
H512	H	0.672669	0.514197	0.307485
H513	H	0.680740	0.630108	0.360914
H514	H	0.630704	0.607621	0.347831
H515	H	0.803163	0.621019	0.483734
H516	H	0.750633	0.642709	0.471379
H517	H	0.534088	0.521876	0.411710
H518	H	0.704703	0.511171	0.475695
H519	H	0.829804	0.615562	0.310116
H520	H	0.834855	0.641798	0.279885
N199	N	0.654069	0.710871	0.425907
N200	N	0.526624	0.537914	0.299563
N201	N	0.592731	0.663015	0.427675
N202	N	0.971302	0.587452	0.299269
N203	N	0.652135	0.504515	0.288852
N204	N	0.641876	0.624091	0.361137
N205	N	0.763965	0.626433	0.484458
N206	N	0.519064	0.505839	0.424077
N207	N	0.741675	0.503049	0.479279
N208	N	0.850051	0.625538	0.292305
Ni51	Ni	0.623593	0.687457	0.460835
Ni52	Ni	0.500082	0.562694	0.332980
O201	O	0.566374	0.586632	0.345375
O202	O	0.686836	0.662435	0.470590
O203	O	0.560983	0.713156	0.468398
O204	O	0.610669	0.658917	0.494754
O205	O	0.511660	0.535014	0.369203
O206	O	0.636843	0.715650	0.495277
O207	O	0.934298	0.540184	0.345060
O208	O	0.989518	0.590083	0.368571
C625	C	0.696249	0.501053	0.634972
C626	C	0.567223	0.746315	0.510833
C627	C	0.730654	0.616076	0.505903
C628	C	0.748495	0.594827	0.526473
C629	C	0.665767	0.592167	0.550323
C630	C	0.645408	0.613287	0.531534
C631	C	0.677667	0.626251	0.509387
C632	C	0.717413	0.523461	0.616036
C633	C	0.891593	0.744372	0.630997
C634	C	0.773023	0.510131	0.504384
C635	C	0.971990	0.745856	0.664114
C636	C	0.852444	0.506523	0.538078
C637	C	0.859028	0.627083	0.637996
C638	C	0.878059	0.648664	0.657759
C639	C	0.873964	0.723205	0.650270
C640	C	0.755653	0.530800	0.525294
C641	C	0.951597	0.723981	0.682245
C642	C	0.831877	0.526520	0.558108
C643	C	0.791727	0.658678	0.673183
C644	C	0.769907	0.638035	0.654185
C645	C	0.802683	0.621926	0.635639
C646	C	0.842788	0.725434	0.741053
C647	C	0.781327	0.599758	0.615846
C648	C	0.910241	0.652506	0.741483
H521	H	0.510455	0.630514	0.741131
H522	H	0.717850	0.540913	0.520135
H523	H	0.641263	0.581662	0.567640
H524	H	0.727175	0.634177	0.655254
H525	H	0.604763	0.620101	0.535189
H526	H	0.920710	0.652966	0.659875
H527	H	0.788950	0.587012	0.524395
H528	H	0.835672	0.713522	0.645696
H529	H	0.975289	0.715628	0.702371
H530	H	0.854031	0.533656	0.579387
H531	H	0.766733	0.671208	0.688084
H532	H	0.565184	0.506761	0.617445
H533	H	0.621294	0.523592	0.602910
H534	H	0.666517	0.737969	0.526969
H535	H	0.539328	0.746240	0.692685
H536	H	0.753953	0.737290	0.715351
H537	H	0.934582	0.611178	0.626073
H538	H	0.876831	0.595276	0.611006
N209	N	0.717375	0.584044	0.548993
N210	N	0.903668	0.713507	0.675693
N211	N	0.783593	0.538013	0.551898
N212	N	0.845052	0.663677	0.675161
N213	N	0.605868	0.507778	0.615517
N214	N	0.893417	0.611153	0.623444
Ni53	Ni	0.749772	0.561237	0.584958
Ni54	Ni	0.875263	0.688839	0.708766
O209	O	0.688828	0.535320	0.593181
O210	O	0.733893	0.590742	0.618555
O211	O	0.810092	0.587754	0.594146
O212	O	0.938163	0.665002	0.720482
O213	O	0.813484	0.713981	0.718733
O214	O	0.861262	0.660502	0.743506
O215	O	0.764137	0.533042	0.620594
O216	O	0.890261	0.716111	0.744443
C649	C	0.640527	0.744398	0.884291
C650	C	0.513270	0.503333	0.759357
C651	C	0.729052	0.736019	0.905670
C652	C	0.601023	0.510796	0.783029
C653	C	0.608249	0.632665	0.883389
C654	C	0.624193	0.653910	0.904389
C655	C	0.621592	0.723797	0.905039
C656	C	0.993850	0.523759	0.779147
C657	C	0.707177	0.716231	0.925474
C658	C	0.578788	0.532520	0.800440
C659	C	0.543297	0.652359	0.931130
C660	C	0.524879	0.631474	0.911176
C661	C	0.556660	0.620960	0.886929
C662	C	0.588673	0.724523	0.991310
C663	C	0.537772	0.598715	0.866470
C664	C	0.657982	0.649636	0.991218
C665	C	0.941159	0.506231	0.887219
C666	C	0.823171	0.747429	0.761117
C667	C	0.983516	0.621120	0.758059
C668	C	0.502511	0.599948	0.777331
C669	C	0.920536	0.595003	0.801995
C670	C	0.899146	0.617433	0.784878
C671	C	0.931396	0.630433	0.761326
C672	C	0.962042	0.527693	0.866739
H539	H	0.663350	0.663189	0.901992
H540	H	0.543106	0.592470	0.775580
H541	H	0.579330	0.718528	0.904788
H542	H	0.731739	0.704901	0.942622
H543	H	0.604442	0.545080	0.815747
H544	H	0.518943	0.660592	0.950271
H545	H	0.865766	0.501335	0.861196
H546	H	0.984838	0.742400	0.994061
H547	H	0.771619	0.740222	0.907687
H548	H	0.890966	0.747691	0.794352
H549	H	0.951696	0.528981	0.779386
H550	H	0.895278	0.583446	0.817997
H551	H	0.985760	0.623048	0.915857
H552	H	0.672669	0.514197	0.807485
H553	H	0.680740	0.630108	0.860914
H554	H	0.630704	0.607621	0.847831
H555	H	0.803163	0.621019	0.983734
H556	H	0.750633	0.642709	0.971379
H557	H	0.534088	0.521876	0.911710
H558	H	0.704703	0.511171	0.975695
H559	H	0.829804	0.615562	0.810116
H560	H	0.834855	0.641798	0.779885
N215	N	0.654069	0.710871	0.925907
N216	N	0.526624	0.537914	0.799562
N217	N	0.592731	0.663015	0.927675
N218	N	0.971302	0.587452	0.799269
N219	N	0.652135	0.504515	0.788852
N220	N	0.641876	0.624091	0.861137
N221	N	0.763965	0.626433	0.984458
N222	N	0.519064	0.505839	0.924077
N223	N	0.741675	0.503049	0.979279
N224	N	0.850051	0.625538	0.792305
Ni55	Ni	0.623593	0.687457	0.960835
Ni56	Ni	0.500082	0.562694	0.832980
O217	O	0.566374	0.586632	0.845375
O218	O	0.686836	0.662435	0.970590
O219	O	0.560983	0.713156	0.968398
O220	O	0.610669	0.658917	0.994754
O221	O	0.511660	0.535014	0.869203
O222	O	0.636843	0.715650	0.995277
O223	O	0.934298	0.540184	0.845059
O224	O	0.989518	0.590083	0.868571
C673	C	0.640527	0.994398	0.134291
C674	C	0.513270	0.753333	0.009357
C675	C	0.729052	0.986019	0.155670
C676	C	0.601023	0.760796	0.033029
C677	C	0.608249	0.882665	0.133389
C678	C	0.624193	0.903910	0.154389
C679	C	0.621592	0.973797	0.155039
C680	C	0.993850	0.773759	0.029147
C681	C	0.707177	0.966231	0.175475
C682	C	0.578788	0.782520	0.050440
C683	C	0.543297	0.902359	0.181130
C684	C	0.524879	0.881474	0.161176
C685	C	0.556660	0.870960	0.136929
C686	C	0.588673	0.974523	0.241310
C687	C	0.537772	0.848715	0.116470
C688	C	0.657982	0.899636	0.241218
C689	C	0.941159	0.756231	0.137219
C690	C	0.823171	0.997429	0.011117
C691	C	0.983516	0.871120	0.008059
C692	C	0.502511	0.849948	0.027331
C693	C	0.920536	0.845003	0.051995
C694	C	0.899146	0.867433	0.034878
C695	C	0.931396	0.880433	0.011326
C696	C	0.962042	0.777693	0.116739
H561	H	0.663350	0.913189	0.151993
H562	H	0.543106	0.842470	0.025580
H563	H	0.579330	0.968528	0.154788
H564	H	0.731739	0.954901	0.192622
H565	H	0.604442	0.795080	0.065747
H566	H	0.518943	0.910592	0.200271
H567	H	0.865766	0.751335	0.111196
H568	H	0.984838	0.992400	0.244061
H569	H	0.771619	0.990222	0.157688
H570	H	0.890966	0.997691	0.044352
H571	H	0.951696	0.778981	0.029386
H572	H	0.895278	0.833446	0.067997
H573	H	0.985760	0.873048	0.165857
H574	H	0.672669	0.764197	0.057485
H575	H	0.680740	0.880108	0.110914
H576	H	0.630704	0.857621	0.097831
H577	H	0.803163	0.871019	0.233734
H578	H	0.750633	0.892709	0.221379
H579	H	0.534088	0.771876	0.161710
H580	H	0.704703	0.761171	0.225694
H581	H	0.829804	0.865562	0.060116
H582	H	0.834855	0.891798	0.029885
N225	N	0.654069	0.960871	0.175907
N226	N	0.526624	0.787914	0.049563
N227	N	0.592731	0.913015	0.177675
N228	N	0.971302	0.837452	0.049269
N229	N	0.652135	0.754515	0.038852
N230	N	0.641876	0.874091	0.111137
N231	N	0.763965	0.876433	0.234458
N232	N	0.519064	0.755839	0.174077
N233	N	0.741675	0.753049	0.229279
N234	N	0.850051	0.875538	0.042305
Ni57	Ni	0.623593	0.937457	0.210835
Ni58	Ni	0.500082	0.812694	0.082980
O225	O	0.566374	0.836632	0.095375
O226	O	0.686836	0.912435	0.220590
O227	O	0.560983	0.963156	0.218397
O228	O	0.610669	0.908917	0.244755
O229	O	0.511660	0.785014	0.119203
O230	O	0.636843	0.965650	0.245277
O231	O	0.934298	0.790184	0.095060
O232	O	0.989518	0.840083	0.118571
C697	C	0.696249	0.751053	0.384972
C698	C	0.567223	0.996315	0.260833
C699	C	0.730654	0.866076	0.255903
C700	C	0.748495	0.844827	0.276473
C701	C	0.665767	0.842167	0.300323
C702	C	0.645408	0.863287	0.281534
C703	C	0.677667	0.876251	0.259387
C704	C	0.717413	0.773461	0.366036
C705	C	0.891593	0.994372	0.380997
C706	C	0.773023	0.760131	0.254384
C707	C	0.971990	0.995856	0.414114
C708	C	0.852444	0.756523	0.288078
C709	C	0.859028	0.877083	0.387996
C710	C	0.878059	0.898664	0.407759
C711	C	0.873964	0.973205	0.400270
C712	C	0.755653	0.780800	0.275294
C713	C	0.951597	0.973981	0.432245
C714	C	0.831877	0.776520	0.308108
C715	C	0.791727	0.908678	0.423183
C716	C	0.769907	0.888035	0.404185
C717	C	0.802683	0.871926	0.385639
C718	C	0.842788	0.975434	0.491053
C719	C	0.781327	0.849758	0.365847
C720	C	0.910241	0.902506	0.491482
H583	H	0.510455	0.880514	0.491131
H584	H	0.717850	0.790913	0.270135
H585	H	0.641263	0.831662	0.317640
H586	H	0.727175	0.884177	0.405254
H587	H	0.604763	0.870101	0.285189
H588	H	0.920710	0.902966	0.409875
H589	H	0.788950	0.837012	0.274395
H590	H	0.835672	0.963522	0.395696
H591	H	0.975289	0.965628	0.452371
H592	H	0.854031	0.783656	0.329387
H593	H	0.766733	0.921208	0.438084
H594	H	0.565184	0.756761	0.367445
H595	H	0.621294	0.773592	0.352910
H596	H	0.666517	0.987969	0.276969
H597	H	0.539328	0.996240	0.442685
H598	H	0.753953	0.987290	0.465351
H599	H	0.934582	0.861178	0.376073
H600	H	0.876831	0.845276	0.361006
N235	N	0.717375	0.834044	0.298993
N236	N	0.903668	0.963507	0.425693
N237	N	0.783593	0.788013	0.301899
N238	N	0.845052	0.913677	0.425161
N239	N	0.605868	0.757778	0.365517
N240	N	0.893417	0.861153	0.373445
Ni59	Ni	0.749772	0.811237	0.334958
Ni60	Ni	0.875263	0.938839	0.458766
O233	O	0.688828	0.785320	0.343181
O234	O	0.733893	0.840742	0.368555
O235	O	0.810092	0.837754	0.344146
O236	O	0.938163	0.915002	0.470482
O237	O	0.813484	0.963981	0.468733
O238	O	0.861262	0.910502	0.493506
O239	O	0.764137	0.783042	0.370594
O240	O	0.890261	0.966111	0.494443
C721	C	0.640527	0.994398	0.634291
C722	C	0.513270	0.753333	0.509357
C723	C	0.729052	0.986019	0.655670
C724	C	0.601023	0.760796	0.533029
C725	C	0.608249	0.882665	0.633389
C726	C	0.624193	0.903910	0.654389
C727	C	0.621592	0.973797	0.655039
C728	C	0.993850	0.773759	0.529147
C729	C	0.707177	0.966231	0.675474
C730	C	0.578788	0.782520	0.550440
C731	C	0.543297	0.902359	0.681130
C732	C	0.524879	0.881474	0.661176
C733	C	0.556660	0.870960	0.636929
C734	C	0.588673	0.974523	0.741310
C735	C	0.537772	0.848715	0.616470
C736	C	0.657982	0.899636	0.741218
C737	C	0.941159	0.756231	0.637219
C738	C	0.823171	0.997429	0.511117
C739	C	0.983516	0.871120	0.508059
C740	C	0.502511	0.849948	0.527331
C741	C	0.920536	0.845003	0.551995
C742	C	0.899146	0.867433	0.534878
C743	C	0.931396	0.880433	0.511326
C744	C	0.962042	0.777693	0.616739
H601	H	0.663350	0.913189	0.651992
H602	H	0.543106	0.842470	0.525580
H603	H	0.579330	0.968528	0.654788
H604	H	0.731739	0.954901	0.692622
H605	H	0.604442	0.795080	0.565747
H606	H	0.518943	0.910592	0.700271
H607	H	0.865766	0.751335	0.611196
H608	H	0.984838	0.992400	0.744061
H609	H	0.771619	0.990222	0.657687
H610	H	0.890966	0.997691	0.544352
H611	H	0.951696	0.778981	0.529386
H612	H	0.895278	0.833446	0.567997
H613	H	0.985760	0.873048	0.665857
H614	H	0.672669	0.764197	0.557485
H615	H	0.680740	0.880108	0.610914
H616	H	0.630704	0.857621	0.597831
H617	H	0.803163	0.871019	0.733734
H618	H	0.750633	0.892709	0.721379
H619	H	0.534088	0.771876	0.661710
H620	H	0.704703	0.761171	0.725695
H621	H	0.829804	0.865562	0.560116
H622	H	0.834855	0.891798	0.529885
N241	N	0.654069	0.960871	0.675907
N242	N	0.526624	0.787914	0.549562
N243	N	0.592731	0.913015	0.677675
N244	N	0.971302	0.837452	0.549269
N245	N	0.652135	0.754515	0.538852
N246	N	0.641876	0.874091	0.611137
N247	N	0.763965	0.876433	0.734458
N248	N	0.519064	0.755839	0.674077
N249	N	0.741675	0.753049	0.729279
N250	N	0.850051	0.875538	0.542305
Ni61	Ni	0.623593	0.937457	0.710835
Ni62	Ni	0.500082	0.812694	0.582980
O241	O	0.566374	0.836632	0.595375
O242	O	0.686836	0.912435	0.720590
O243	O	0.560983	0.963156	0.718398
O244	O	0.610669	0.908917	0.744754
O245	O	0.511660	0.785014	0.619203
O246	O	0.636843	0.965650	0.745277
O247	O	0.934298	0.790184	0.595059
O248	O	0.989518	0.840083	0.618571
C745	C	0.696249	0.751053	0.884972
C746	C	0.567223	0.996315	0.760833
C747	C	0.730654	0.866076	0.755903
C748	C	0.748495	0.844827	0.776473
C749	C	0.665767	0.842167	0.800323
C750	C	0.645408	0.863287	0.781534
C751	C	0.677667	0.876251	0.759387
C752	C	0.717413	0.773461	0.866036
C753	C	0.891593	0.994372	0.880997
C754	C	0.773023	0.760131	0.754384
C755	C	0.971990	0.995856	0.914114
C756	C	0.852444	0.756523	0.788078
C757	C	0.859028	0.877083	0.887996
C758	C	0.878059	0.898664	0.907759
C759	C	0.873964	0.973205	0.900270
C760	C	0.755653	0.780800	0.775294
C761	C	0.951597	0.973981	0.932245
C762	C	0.831877	0.776520	0.808108
C763	C	0.791727	0.908678	0.923183
C764	C	0.769907	0.888035	0.904185
C765	C	0.802683	0.871926	0.885639
C766	C	0.842788	0.975434	0.991053
C767	C	0.781327	0.849758	0.865846
C768	C	0.910241	0.902506	0.991483
H623	H	0.510455	0.880514	0.991131
H624	H	0.717850	0.790913	0.770135
H625	H	0.641263	0.831662	0.817640
H626	H	0.727175	0.884177	0.905254
H627	H	0.604763	0.870101	0.785189
H628	H	0.920710	0.902966	0.909875
H629	H	0.788950	0.837012	0.774395
H630	H	0.835672	0.963522	0.895696
H631	H	0.975289	0.965628	0.952371
H632	H	0.854031	0.783656	0.829387
H633	H	0.766733	0.921208	0.938084
H634	H	0.565184	0.756761	0.867445
H635	H	0.621294	0.773592	0.852910
H636	H	0.666517	0.987969	0.776969
H637	H	0.539328	0.996240	0.942685
H638	H	0.753953	0.987290	0.965351
H639	H	0.934582	0.861178	0.876073
H640	H	0.876831	0.845276	0.861006
N251	N	0.717375	0.834044	0.798993
N252	N	0.903668	0.963507	0.925693
N253	N	0.783593	0.788013	0.801898
N254	N	0.845052	0.913677	0.925161
N255	N	0.605868	0.757778	0.865517
N256	N	0.893417	0.861153	0.873444
Ni63	Ni	0.749772	0.811237	0.834958
Ni64	Ni	0.875263	0.938839	0.958766
O249	O	0.688828	0.785320	0.843181
O250	O	0.733893	0.840742	0.868555
O251	O	0.810092	0.837754	0.844146
O252	O	0.938163	0.915002	0.970482
O253	O	0.813484	0.963981	0.968733
O254	O	0.861262	0.910502	0.993506
O255	O	0.764137	0.783042	0.870594
O256	O	0.890261	0.966111	0.994443

loop_
_geom_bond_atom_site_label_1
_geom_bond_atom_site_label_2
_geom_bond_distance
C1	C8	0.03617
C2	C98	0.05443
C2	C100	0.04295
C3	C4	0.03454
C3	C7	0.05407
C4	H7	0.04126
C4	N1	0.03990
C5	C6	0.03484
C5	H3	0.03179
C5	N1	0.05226
C6	C7	0.04122
C6	H5	0.04137
C8	O1	0.03847
C8	O7	0.04791
C9	C15	0.03362
C9	C113	0.05134
C9	H87	0.03328
C10	C16	0.03415
C11	C17	0.03497
C11	C113	0.04221
C11	N168	0.04914
C12	C18	0.03499
C13	C14	0.03491
C13	C21	0.05663
C13	N6	0.04060
C14	H6	0.04292
C14	N4	0.04022
C15	H8	0.03976
C15	N2	0.04028
C16	H2	0.03947
C16	N3	0.03925
C17	H9	0.03219
C17	N2	0.04950
C18	H10	0.03154
C18	N3	0.05002
C19	C20	0.03554
C19	H11	0.03168
C19	N4	0.05359
C20	C21	0.04096
C20	H4	0.04292
C21	C23	0.03660
C22	O5	0.03858
C22	O8	0.04850
C22	C42	0.03565
C23	O2	0.04836
C23	O3	0.03798
C24	O4	0.03711
C24	O6	0.04967
C24	C47	0.03645
H12	N5	0.04074
H13	N5	0.02544
H14	N37	0.02494
H15	N40	0.02914
H16	N41	0.02435
H17	N6	0.04125
H18	N6	0.02611
N1	Ni1	0.05351
N2	Ni2	0.05009
N3	Ni1	0.05269
N4	Ni2	0.05172
Ni1	O1	0.06673
Ni1	O2	0.04745
Ni1	O3	0.06653
Ni1	O7	0.04766
Ni2	O4	0.06828
Ni2	O5	0.06744
Ni2	O6	0.04697
Ni2	O8	0.04734
O6	H40	0.04869
C25	C31	0.03483
C25	C121	0.05612
C25	N47	0.04163
C27	C33	0.03553
C27	H27	0.04282
C27	C121	0.04160
C28	C34	0.03563
C28	N11	0.05182
C29	C30	0.03386
C29	C37	0.05302
C29	N12	0.04122
C30	H19	0.04031
C30	N9	0.04019
C31	H21	0.04259
C31	N7	0.04071
C32	H29	0.04248
C32	C410	0.03444
C32	N136	0.04112
C33	H22	0.03203
C33	N7	0.05338
C34	H23	0.03241
C34	N8	0.05245
C35	C36	0.03426
C35	H24	0.03205
C35	N9	0.05069
C36	C37	0.04133
C37	C39	0.03564
C38	O11	0.03770
C38	O14	0.04914
C38	C50	0.03628
C39	O9	0.03754
C40	O10	0.03771
C40	O12	0.04834
C40	C55	0.03556
C41	C48	0.03628
C42	C130	0.05217
C42	C132	0.04082
C43	C47	0.05305
C43	H321	0.03317
C43	C428	0.03436
C44	H20	0.04132
C45	C46	0.03541
C45	H30	0.03206
C45	N10	0.05140
C46	C47	0.04200
C46	N16	0.05031
C48	O15	0.03736
C48	O141	0.05022
H26	C530	0.03409
H28	C132	0.04002
H31	C420	0.04029
H32	N11	0.02937
H33	N12	0.03933
H34	N12	0.02394
H35	N13	0.03958
H36	N13	0.02477
H37	N14	0.02522
H38	N15	0.03802
H39	N16	0.02875
H40	N16	0.02549
N7	Ni3	0.05193
N8	Ni4	0.04935
N9	Ni3	0.05147
N10	C428	0.04014
N10	Ni36	0.05077
N13	C51	0.04095
N15	C58	0.04078
Ni3	O10	0.06871
Ni3	O11	0.06810
Ni3	O12	0.04618
Ni3	O14	0.04644
Ni4	O9	0.07156
Ni4	O13	0.04703
O14	H54	0.04882
O15	Ni36	0.07057
O16	C423	0.04907
O16	Ni36	0.04614
C49	C56	0.03617
C50	C146	0.05443
C50	C148	0.04295
C51	C52	0.03454
C51	C55	0.05407
C52	H47	0.04126
C52	N17	0.03990
C53	C54	0.03484
C53	H43	0.03179
C53	N17	0.05226
C54	C55	0.04122
C54	H45	0.04137
C56	O17	0.03847
C56	O23	0.04791
C57	C63	0.03362
C57	C161	0.05134
C57	H127	0.03328
C58	C64	0.03415
C59	C65	0.03497
C59	C161	0.04221
C59	N184	0.04914
C60	C66	0.03499
C61	C62	0.03491
C61	C69	0.05663
C61	N22	0.04060
C62	H46	0.04292
C62	N20	0.04022
C63	H48	0.03976
C63	N18	0.04028
C64	H42	0.03947
C64	N19	0.03925
C65	H49	0.03219
C65	N18	0.04950
C66	H50	0.03154
C66	N19	0.05002
C67	C68	0.03554
C67	H51	0.03168
C67	N20	0.05359
C68	C69	0.04096
C68	H44	0.04292
C69	C71	0.03660
C70	O21	0.03858
C70	O24	0.04850
C70	C90	0.03565
C71	O18	0.04836
C71	O19	0.03798
C72	O20	0.03711
C72	O22	0.04967
C72	C95	0.03645
H52	N21	0.04074
H53	N21	0.02544
H54	N53	0.02494
H55	N56	0.02914
H56	N57	0.02435
H57	N22	0.04125
H58	N22	0.02611
N17	Ni5	0.05351
N18	Ni6	0.05009
N19	Ni5	0.05269
N20	Ni6	0.05172
Ni5	O17	0.06673
Ni5	O18	0.04745
Ni5	O19	0.06653
Ni5	O23	0.04766
Ni6	O20	0.06828
Ni6	O21	0.06744
Ni6	O22	0.04697
Ni6	O24	0.04734
O22	H80	0.04869
C73	C79	0.03483
C73	C169	0.05612
C73	N63	0.04163
C75	C81	0.03553
C75	H67	0.04282
C75	C169	0.04160
C76	C82	0.03563
C76	N27	0.05182
C77	C78	0.03386
C77	C85	0.05302
C77	N28	0.04122
C78	H59	0.04031
C78	N25	0.04019
C79	H61	0.04259
C79	N23	0.04071
C80	H69	0.04248
C80	C458	0.03444
C80	N152	0.04112
C81	H62	0.03203
C81	N23	0.05338
C82	H63	0.03241
C82	N24	0.05245
C83	C84	0.03426
C83	H64	0.03205
C83	N25	0.05069
C84	C85	0.04133
C85	C87	0.03564
C86	O27	0.03770
C86	O30	0.04914
C87	O25	0.03754
C88	O26	0.03771
C88	O28	0.04834
C89	C96	0.03628
C90	C178	0.05217
C90	C180	0.04082
C91	C95	0.05305
C91	H361	0.03317
C91	C476	0.03436
C92	H60	0.04132
C93	C94	0.03541
C93	H70	0.03206
C93	N26	0.05140
C94	C95	0.04200
C94	N32	0.05031
C96	O31	0.03736
C96	O157	0.05022
H68	C180	0.04002
H71	C468	0.04029
H72	N27	0.02937
H73	N28	0.03933
H74	N28	0.02394
H75	N29	0.03958
H76	N29	0.02477
H77	N30	0.02522
H78	N31	0.03802
H79	N32	0.02875
H80	N32	0.02549
N23	Ni7	0.05193
N24	Ni8	0.04935
N25	Ni7	0.05147
N26	C476	0.04014
N26	Ni40	0.05077
Ni7	O26	0.06871
Ni7	O27	0.06810
Ni7	O28	0.04618
Ni7	O30	0.04644
Ni8	O25	0.07156
Ni8	O29	0.04703
O31	Ni40	0.07057
O32	C471	0.04907
O32	Ni40	0.04614
C97	C103	0.03483
C97	C193	0.05612
C97	N69	0.04163
C99	C105	0.03553
C99	H89	0.04282
C99	C193	0.04160
C100	C106	0.03563
C100	N37	0.05182
C101	C102	0.03386
C101	C109	0.05302
C101	N38	0.04122
C102	H81	0.04031
C102	N35	0.04019
C103	H83	0.04259
C103	N33	0.04071
C104	H91	0.04248
C104	C482	0.03444
C104	N162	0.04112
C105	H84	0.03203
C105	N33	0.05338
C106	H85	0.03241
C106	N34	0.05245
C107	C108	0.03426
C107	H86	0.03205
C107	N35	0.05069
C108	C109	0.04133
C109	C111	0.03564
C110	O35	0.03770
C110	O38	0.04914
C110	C122	0.03628
C111	O33	0.03754
C112	O34	0.03771
C112	O36	0.04834
C112	C127	0.03556
C113	C120	0.03628
C114	C202	0.05217
C114	C204	0.04082
C115	C119	0.05305
C115	C500	0.03436
C116	H82	0.04132
C117	C118	0.03541
C117	H92	0.03206
C117	N36	0.05140
C118	C119	0.04200
C118	N42	0.05031
C120	O39	0.03736
C120	O165	0.05022
H88	C602	0.03409
H90	C204	0.04002
H93	C492	0.04029
H94	N37	0.02937
H95	N38	0.03933
H96	N38	0.02394
H97	N39	0.03958
H98	N39	0.02477
H99	N40	0.02522
H100	N41	0.03802
H101	N42	0.02875
H102	N42	0.02549
N33	Ni9	0.05193
N34	Ni10	0.04935
N35	Ni9	0.05147
N36	C500	0.04014
N36	Ni42	0.05077
N39	C123	0.04095
N41	C130	0.04078
Ni9	O34	0.06871
Ni9	O35	0.06810
Ni9	O36	0.04618
Ni9	O38	0.04644
Ni10	O33	0.07156
Ni10	O37	0.04703
O38	H116	0.04882
O39	Ni42	0.07057
O40	C495	0.04907
O40	Ni42	0.04614
C121	C128	0.03617
C122	C218	0.05443
C122	C220	0.04295
C123	C124	0.03454
C123	C127	0.05407
C124	H109	0.04126
C124	N43	0.03990
C125	C126	0.03484
C125	H105	0.03179
C125	N43	0.05226
C126	C127	0.04122
C126	H107	0.04137
C128	O41	0.03847
C128	O47	0.04791
C129	C135	0.03362
C129	C233	0.05134
C129	H185	0.03328
C130	C136	0.03415
C131	C137	0.03497
C131	C233	0.04221
C131	N206	0.04914
C132	C138	0.03499
C133	C134	0.03491
C133	C141	0.05663
C133	N48	0.04060
C134	H108	0.04292
C134	N46	0.04022
C135	H110	0.03976
C135	N44	0.04028
C136	H104	0.03947
C136	N45	0.03925
C137	H111	0.03219
C137	N44	0.04950
C138	H112	0.03154
C138	N45	0.05002
C139	C140	0.03554
C139	H113	0.03168
C139	N46	0.05359
C140	C141	0.04096
C140	H106	0.04292
C141	C143	0.03660
C142	O45	0.03858
C142	O48	0.04850
C142	C162	0.03565
C143	O42	0.04836
C143	O43	0.03798
C144	O44	0.03711
C144	O46	0.04967
C144	C167	0.03645
H114	N47	0.04074
H115	N47	0.02544
H116	N75	0.02494
H117	N78	0.02914
H118	N79	0.02435
H119	N48	0.04125
H120	N48	0.02611
N43	Ni11	0.05351
N44	Ni12	0.05009
N45	Ni11	0.05269
N46	Ni12	0.05172
Ni11	O41	0.06673
Ni11	O42	0.04745
Ni11	O43	0.06653
Ni11	O47	0.04766
Ni12	O44	0.06828
Ni12	O45	0.06744
Ni12	O46	0.04697
Ni12	O48	0.04734
O46	H142	0.04869
C145	C151	0.03483
C145	C241	0.05612
C145	N85	0.04163
C147	C153	0.03553
C147	H129	0.04282
C147	C241	0.04160
C148	C154	0.03563
C148	N53	0.05182
C149	C150	0.03386
C149	C157	0.05302
C149	N54	0.04122
C150	H121	0.04031
C150	N51	0.04019
C151	H123	0.04259
C151	N49	0.04071
C152	H131	0.04248
C152	C530	0.03444
C152	N178	0.04112
C153	H124	0.03203
C153	N49	0.05338
C154	H125	0.03241
C154	N50	0.05245
C155	C156	0.03426
C155	H126	0.03205
C155	N51	0.05069
C156	C157	0.04133
C157	C159	0.03564
C158	O51	0.03770
C158	O54	0.04914
C158	C170	0.03628
C159	O49	0.03754
C160	O50	0.03771
C160	O52	0.04834
C160	C175	0.03556
C161	C168	0.03628
C162	C250	0.05217
C162	C252	0.04082
C163	C167	0.05305
C163	H423	0.03317
C163	C548	0.03436
C164	H122	0.04132
C165	C166	0.03541
C165	H132	0.03206
C165	N52	0.05140
C166	C167	0.04200
C166	N58	0.05031
C168	O55	0.03736
C168	O181	0.05022
H128	C650	0.03409
H130	C252	0.04002
H133	C540	0.04029
H134	N53	0.02937
H135	N54	0.03933
H136	N54	0.02394
H137	N55	0.03958
H138	N55	0.02477
H139	N56	0.02522
H140	N57	0.03802
H141	N58	0.02875
H142	N58	0.02549
N49	Ni13	0.05193
N50	Ni14	0.04935
N51	Ni13	0.05147
N52	C548	0.04014
N52	Ni46	0.05077
N55	C171	0.04095
N57	C178	0.04078
Ni13	O50	0.06871
Ni13	O51	0.06810
Ni13	O52	0.04618
Ni13	O54	0.04644
Ni14	O49	0.07156
Ni14	O53	0.04703
O54	H156	0.04882
O55	Ni46	0.07057
O56	C543	0.04907
O56	Ni46	0.04614
C169	C176	0.03617
C170	C266	0.05443
C170	C268	0.04295
C171	C172	0.03454
C171	C175	0.05407
C172	H149	0.04126
C172	N59	0.03990
C173	C174	0.03484
C173	H145	0.03179
C173	N59	0.05226
C174	C175	0.04122
C174	H147	0.04137
C176	O57	0.03847
C176	O63	0.04791
C177	C183	0.03362
C177	C281	0.05134
C177	H225	0.03328
C178	C184	0.03415
C179	C185	0.03497
C179	C281	0.04221
C179	N222	0.04914
C180	C186	0.03499
C181	C182	0.03491
C181	C189	0.05663
C181	N64	0.04060
C182	H148	0.04292
C182	N62	0.04022
C183	H150	0.03976
C183	N60	0.04028
C184	H144	0.03947
C184	N61	0.03925
C185	H151	0.03219
C185	N60	0.04950
C186	H152	0.03154
C186	N61	0.05002
C187	C188	0.03554
C187	H153	0.03168
C187	N62	0.05359
C188	C189	0.04096
C188	H146	0.04292
C189	C191	0.03660
C190	O61	0.03858
C190	O64	0.04850
C191	O58	0.04836
C191	O59	0.03798
C192	O60	0.03711
C192	O62	0.04967
H154	N63	0.04074
H155	N63	0.02544
H156	N91	0.02494
H157	N94	0.02914
H158	N95	0.02435
H159	N64	0.04125
H160	N64	0.02611
N59	Ni15	0.05351
N60	Ni16	0.05009
N61	Ni15	0.05269
N62	Ni16	0.05172
Ni15	O57	0.06673
Ni15	O58	0.04745
Ni15	O59	0.06653
Ni15	O63	0.04766
Ni16	O60	0.06828
Ni16	O61	0.06744
Ni16	O62	0.04697
Ni16	O64	0.04734
C193	C200	0.03617
C194	C290	0.05443
C194	C292	0.04295
C195	C196	0.03454
C195	C199	0.05407
C196	H167	0.04126
C196	N65	0.03990
C197	C198	0.03484
C197	H163	0.03179
C197	N65	0.05226
C198	C199	0.04122
C198	H165	0.04137
C200	O65	0.03847
C200	O71	0.04791
C201	C207	0.03362
C201	C305	0.05134
C201	H247	0.03328
C202	C208	0.03415
C203	C209	0.03497
C203	C305	0.04221
C203	N232	0.04914
C204	C210	0.03499
C205	C206	0.03491
C205	C213	0.05663
C205	N70	0.04060
C206	H166	0.04292
C206	N68	0.04022
C207	H168	0.03976
C207	N66	0.04028
C208	H162	0.03947
C208	N67	0.03925
C209	H169	0.03219
C209	N66	0.04950
C210	H170	0.03154
C210	N67	0.05002
C211	C212	0.03554
C211	H171	0.03168
C211	N68	0.05359
C212	C213	0.04096
C212	H164	0.04292
C213	C215	0.03660
C214	O69	0.03858
C214	O72	0.04850
C214	C234	0.03565
C215	O66	0.04836
C215	O67	0.03798
C216	O68	0.03711
C216	O70	0.04967
C216	C239	0.03645
H172	N69	0.04074
H173	N69	0.02544
H174	N101	0.02494
H175	N104	0.02914
H176	N105	0.02435
H177	N70	0.04125
H178	N70	0.02611
N65	Ni17	0.05351
N66	Ni18	0.05009
N67	Ni17	0.05269
N68	Ni18	0.05172
Ni17	O65	0.06673
Ni17	O66	0.04745
Ni17	O67	0.06653
Ni17	O71	0.04766
Ni18	O68	0.06828
Ni18	O69	0.06744
Ni18	O70	0.04697
Ni18	O72	0.04734
O70	H200	0.04869
C217	C223	0.03483
C217	C313	0.05612
C217	N111	0.04163
C219	C225	0.03553
C219	H187	0.04282
C219	C313	0.04160
C220	C226	0.03563
C220	N75	0.05182
C221	C222	0.03386
C221	C229	0.05302
C221	N76	0.04122
C222	H179	0.04031
C222	N73	0.04019
C223	H181	0.04259
C223	N71	0.04071
C224	H189	0.04248
C224	C602	0.03444
C224	N200	0.04112
C225	H182	0.03203
C225	N71	0.05338
C226	H183	0.03241
C226	N72	0.05245
C227	C228	0.03426
C227	H184	0.03205
C227	N73	0.05069
C228	C229	0.04133
C229	C231	0.03564
C230	O75	0.03770
C230	O78	0.04914
C230	C242	0.03628
C231	O73	0.03754
C232	O74	0.03771
C232	O76	0.04834
C232	C247	0.03556
C233	C240	0.03628
C234	C322	0.05217
C234	C324	0.04082
C235	C239	0.05305
C235	H481	0.03317
C235	C620	0.03436
C236	H180	0.04132
C237	C238	0.03541
C237	H190	0.03206
C237	N74	0.05140
C238	C239	0.04200
C238	N80	0.05031
C240	O79	0.03736
C240	O205	0.05022
H186	C722	0.03409
H188	C324	0.04002
H191	C612	0.04029
H192	N75	0.02937
H193	N76	0.03933
H194	N76	0.02394
H195	N77	0.03958
H196	N77	0.02477
H197	N78	0.02522
H198	N79	0.03802
H199	N80	0.02875
H200	N80	0.02549
N71	Ni19	0.05193
N72	Ni20	0.04935
N73	Ni19	0.05147
N74	C620	0.04014
N74	Ni52	0.05077
N77	C243	0.04095
N79	C250	0.04078
Ni19	O74	0.06871
Ni19	O75	0.06810
Ni19	O76	0.04618
Ni19	O78	0.04644
Ni20	O73	0.07156
Ni20	O77	0.04703
O78	H214	0.04882
O79	Ni52	0.07057
O80	C615	0.04907
O80	Ni52	0.04614
C241	C248	0.03617
C242	C338	0.05443
C242	C340	0.04295
C243	C244	0.03454
C243	C247	0.05407
C244	H207	0.04126
C244	N81	0.03990
C245	C246	0.03484
C245	H203	0.03179
C245	N81	0.05226
C246	C247	0.04122
C246	H205	0.04137
C248	O81	0.03847
C248	O87	0.04791
C249	C255	0.03362
C249	C353	0.05134
C249	H287	0.03328
C250	C256	0.03415
C251	C257	0.03497
C251	C353	0.04221
C251	N248	0.04914
C252	C258	0.03499
C253	C254	0.03491
C253	C261	0.05663
C253	N86	0.04060
C254	H206	0.04292
C254	N84	0.04022
C255	H208	0.03976
C255	N82	0.04028
C256	H202	0.03947
C256	N83	0.03925
C257	H209	0.03219
C257	N82	0.04950
C258	H210	0.03154
C258	N83	0.05002
C259	C260	0.03554
C259	H211	0.03168
C259	N84	0.05359
C260	C261	0.04096
C260	H204	0.04292
C261	C263	0.03660
C262	O85	0.03858
C262	O88	0.04850
C262	C282	0.03565
C263	O82	0.04836
C263	O83	0.03798
C264	O84	0.03711
C264	O86	0.04967
C264	C287	0.03645
H212	N85	0.04074
H213	N85	0.02544
H214	N117	0.02494
H215	N120	0.02914
H216	N121	0.02435
H217	N86	0.04125
H218	N86	0.02611
N81	Ni21	0.05351
N82	Ni22	0.05009
N83	Ni21	0.05269
N84	Ni22	0.05172
Ni21	O81	0.06673
Ni21	O82	0.04745
Ni21	O83	0.06653
Ni21	O87	0.04766
Ni22	O84	0.06828
Ni22	O85	0.06744
Ni22	O86	0.04697
Ni22	O88	0.04734
O86	H240	0.04869
C265	C271	0.03483
C265	C361	0.05612
C265	N127	0.04163
C267	C273	0.03553
C267	H227	0.04282
C267	C361	0.04160
C268	C274	0.03563
C268	N91	0.05182
C269	C270	0.03386
C269	C277	0.05302
C269	N92	0.04122
C270	H219	0.04031
C270	N89	0.04019
C271	H221	0.04259
C271	N87	0.04071
C272	H229	0.04248
C272	C650	0.03444
C272	N216	0.04112
C273	H222	0.03203
C273	N87	0.05338
C274	H223	0.03241
C274	N88	0.05245
C275	C276	0.03426
C275	H224	0.03205
C275	N89	0.05069
C276	C277	0.04133
C277	C279	0.03564
C278	O91	0.03770
C278	O94	0.04914
C279	O89	0.03754
C280	O90	0.03771
C280	O92	0.04834
C281	C288	0.03628
C282	C370	0.05217
C282	C372	0.04082
C283	C287	0.05305
C283	H521	0.03317
C283	C668	0.03436
C284	H220	0.04132
C285	C286	0.03541
C285	H230	0.03206
C285	N90	0.05140
C286	C287	0.04200
C286	N96	0.05031
C288	O95	0.03736
C288	O221	0.05022
H228	C372	0.04002
H231	C660	0.04029
H232	N91	0.02937
H233	N92	0.03933
H234	N92	0.02394
H235	N93	0.03958
H236	N93	0.02477
H237	N94	0.02522
H238	N95	0.03802
H239	N96	0.02875
H240	N96	0.02549
N87	Ni23	0.05193
N88	Ni24	0.04935
N89	Ni23	0.05147
N90	C668	0.04014
N90	Ni56	0.05077
Ni23	O90	0.06871
Ni23	O91	0.06810
Ni23	O92	0.04618
Ni23	O94	0.04644
Ni24	O89	0.07156
Ni24	O93	0.04703
O95	Ni56	0.07057
O96	C663	0.04907
O96	Ni56	0.04614
C289	C295	0.03483
C291	C297	0.03553
C291	H249	0.04282
C292	C298	0.03563
C292	N101	0.05182
C293	C294	0.03386
C293	C301	0.05302
C293	N102	0.04122
C294	H241	0.04031
C294	N99	0.04019
C295	H243	0.04259
C295	N97	0.04071
C296	H251	0.04248
C296	C674	0.03444
C296	N226	0.04112
C297	H244	0.03203
C297	N97	0.05338
C298	H245	0.03241
C298	N98	0.05245
C299	C300	0.03426
C299	H246	0.03205
C299	N99	0.05069
C300	C301	0.04133
C301	C303	0.03564
C302	O99	0.03770
C302	O102	0.04914
C302	C314	0.03628
C303	O97	0.03754
C304	O98	0.03771
C304	O100	0.04834
C304	C319	0.03556
C305	C312	0.03628
C307	C311	0.05305
C307	C692	0.03436
C308	H242	0.04132
C309	C310	0.03541
C309	H252	0.03206
C309	N100	0.05140
C310	C311	0.04200
C310	N106	0.05031
C312	O103	0.03736
C312	O229	0.05022
H253	C684	0.04029
H254	N101	0.02937
H255	N102	0.03933
H256	N102	0.02394
H257	N103	0.03958
H258	N103	0.02477
H259	N104	0.02522
H260	N105	0.03802
H261	N106	0.02875
H262	N106	0.02549
N97	Ni25	0.05193
N98	Ni26	0.04935
N99	Ni25	0.05147
N100	C692	0.04014
N100	Ni58	0.05077
N103	C315	0.04095
N105	C322	0.04078
Ni25	O98	0.06871
Ni25	O99	0.06810
Ni25	O100	0.04618
Ni25	O102	0.04644
Ni26	O97	0.07156
Ni26	O101	0.04703
O102	H276	0.04882
O103	Ni58	0.07057
O104	C687	0.04907
O104	Ni58	0.04614
C313	C320	0.03617
C315	C316	0.03454
C315	C319	0.05407
C316	H269	0.04126
C316	N107	0.03990
C317	C318	0.03484
C317	H265	0.03179
C317	N107	0.05226
C318	C319	0.04122
C318	H267	0.04137
C320	O105	0.03847
C320	O111	0.04791
C321	C327	0.03362
C322	C328	0.03415
C323	C329	0.03497
C324	C330	0.03499
C325	C326	0.03491
C325	C333	0.05663
C325	N112	0.04060
C326	H268	0.04292
C326	N110	0.04022
C327	H270	0.03976
C327	N108	0.04028
C328	H264	0.03947
C328	N109	0.03925
C329	H271	0.03219
C329	N108	0.04950
C330	H272	0.03154
C330	N109	0.05002
C331	C332	0.03554
C331	H273	0.03168
C331	N110	0.05359
C332	C333	0.04096
C332	H266	0.04292
C333	C335	0.03660
C334	O109	0.03858
C334	O112	0.04850
C334	C354	0.03565
C335	O106	0.04836
C335	O107	0.03798
C336	O108	0.03711
C336	O110	0.04967
C336	C359	0.03645
H274	N111	0.04074
H275	N111	0.02544
H279	N112	0.04125
H280	N112	0.02611
N107	Ni27	0.05351
N108	Ni28	0.05009
N109	Ni27	0.05269
N110	Ni28	0.05172
Ni27	O105	0.06673
Ni27	O106	0.04745
Ni27	O107	0.06653
Ni27	O111	0.04766
Ni28	O108	0.06828
Ni28	O109	0.06744
Ni28	O110	0.04697
Ni28	O112	0.04734
O110	H302	0.04869
C337	C343	0.03483
C339	C345	0.03553
C339	H289	0.04282
C340	C346	0.03563
C340	N117	0.05182
C341	C342	0.03386
C341	C349	0.05302
C341	N118	0.04122
C342	H281	0.04031
C342	N115	0.04019
C343	H283	0.04259
C343	N113	0.04071
C344	H291	0.04248
C344	C722	0.03444
C344	N242	0.04112
C345	H284	0.03203
C345	N113	0.05338
C346	H285	0.03241
C346	N114	0.05245
C347	C348	0.03426
C347	H286	0.03205
C347	N115	0.05069
C348	C349	0.04133
C349	C351	0.03564
C350	O115	0.03770
C350	O118	0.04914
C350	C362	0.03628
C351	O113	0.03754
C352	O114	0.03771
C352	O116	0.04834
C352	C367	0.03556
C353	C360	0.03628
C355	C359	0.05305
C355	H583	0.03317
C355	C740	0.03436
C356	H282	0.04132
C357	C358	0.03541
C357	H292	0.03206
C357	N116	0.05140
C358	C359	0.04200
C358	N122	0.05031
C360	O119	0.03736
C360	O245	0.05022
H293	C732	0.04029
H294	N117	0.02937
H295	N118	0.03933
H296	N118	0.02394
H297	N119	0.03958
H298	N119	0.02477
H299	N120	0.02522
H300	N121	0.03802
H301	N122	0.02875
H302	N122	0.02549
N113	Ni29	0.05193
N114	Ni30	0.04935
N115	Ni29	0.05147
N116	C740	0.04014
N116	Ni62	0.05077
N119	C363	0.04095
N121	C370	0.04078
Ni29	O114	0.06871
Ni29	O115	0.06810
Ni29	O116	0.04618
Ni29	O118	0.04644
Ni30	O113	0.07156
Ni30	O117	0.04703
O118	H316	0.04882
O119	Ni62	0.07057
O120	C735	0.04907
O120	Ni62	0.04614
C361	C368	0.03617
C363	C364	0.03454
C363	C367	0.05407
C364	H309	0.04126
C364	N123	0.03990
C365	C366	0.03484
C365	H305	0.03179
C365	N123	0.05226
C366	C367	0.04122
C366	H307	0.04137
C368	O121	0.03847
C368	O127	0.04791
C369	C375	0.03362
C370	C376	0.03415
C371	C377	0.03497
C372	C378	0.03499
C373	C374	0.03491
C373	C381	0.05663
C373	N128	0.04060
C374	H308	0.04292
C374	N126	0.04022
C375	H310	0.03976
C375	N124	0.04028
C376	H304	0.03947
C376	N125	0.03925
C377	H311	0.03219
C377	N124	0.04950
C378	H312	0.03154
C378	N125	0.05002
C379	C380	0.03554
C379	H313	0.03168
C379	N126	0.05359
C380	C381	0.04096
C380	H306	0.04292
C381	C383	0.03660
C382	O125	0.03858
C382	O128	0.04850
C383	O122	0.04836
C383	O123	0.03798
C384	O124	0.03711
C384	O126	0.04967
H314	N127	0.04074
H315	N127	0.02544
H319	N128	0.04125
H320	N128	0.02611
N123	Ni31	0.05351
N124	Ni32	0.05009
N125	Ni31	0.05269
N126	Ni32	0.05172
Ni31	O121	0.06673
Ni31	O122	0.04745
Ni31	O123	0.06653
Ni31	O127	0.04766
Ni32	O124	0.06828
Ni32	O125	0.06744
Ni32	O126	0.04697
Ni32	O128	0.04734
C385	C392	0.03617
C386	C482	0.05443
C386	C484	0.04295
C387	C388	0.03454
C387	C391	0.05407
C388	H327	0.04126
C388	N129	0.03990
C389	C390	0.03484
C389	H323	0.03179
C389	N129	0.05226
C390	C391	0.04122
C390	H325	0.04137
C392	O129	0.03847
C392	O135	0.04791
C393	C399	0.03362
C393	C497	0.05134
C393	H407	0.03328
C394	C400	0.03415
C395	C401	0.03497
C395	C497	0.04221
C396	C402	0.03499
C397	C398	0.03491
C397	C405	0.05663
C397	N134	0.04060
C398	H326	0.04292
C398	N132	0.04022
C399	H328	0.03976
C399	N130	0.04028
C400	H322	0.03947
C400	N131	0.03925
C401	H329	0.03219
C401	N130	0.04950
C402	H330	0.03154
C402	N131	0.05002
C403	C404	0.03554
C403	H331	0.03168
C403	N132	0.05359
C404	C405	0.04096
C404	H324	0.04292
C405	C407	0.03660
C406	O133	0.03858
C406	O136	0.04850
C406	C426	0.03565
C407	O130	0.04836
C407	O131	0.03798
C408	O132	0.03711
C408	O134	0.04967
C408	C431	0.03645
H332	N133	0.04074
H333	N133	0.02544
H334	N165	0.02494
H335	N168	0.02914
H336	N169	0.02435
H337	N134	0.04125
H338	N134	0.02611
N129	Ni33	0.05351
N130	Ni34	0.05009
N131	Ni33	0.05269
N132	Ni34	0.05172
Ni33	O129	0.06673
Ni33	O130	0.04745
Ni33	O131	0.06653
Ni33	O135	0.04766
Ni34	O132	0.06828
Ni34	O133	0.06744
Ni34	O134	0.04697
Ni34	O136	0.04734
O134	H360	0.04869
C409	C415	0.03483
C409	C505	0.05612
C409	N175	0.04163
C411	C417	0.03553
C411	H347	0.04282
C411	C505	0.04160
C412	C418	0.03563
C412	N139	0.05182
C413	C414	0.03386
C413	C421	0.05302
C413	N140	0.04122
C414	H339	0.04031
C414	N137	0.04019
C415	H341	0.04259
C415	N135	0.04071
C416	H349	0.04248
C417	H342	0.03203
C417	N135	0.05338
C418	H343	0.03241
C418	N136	0.05245
C419	C420	0.03426
C419	H344	0.03205
C419	N137	0.05069
C420	C421	0.04133
C421	C423	0.03564
C422	O139	0.03770
C422	O142	0.04914
C422	C434	0.03628
C423	O137	0.03754
C424	O138	0.03771
C424	O140	0.04834
C424	C439	0.03556
C425	C432	0.03628
C426	C514	0.05217
C426	C516	0.04082
C427	C431	0.05305
C428	H340	0.04132
C429	C430	0.03541
C429	H350	0.03206
C429	N138	0.05140
C430	C431	0.04200
C430	N144	0.05031
C432	O143	0.03736
H348	C516	0.04002
H352	N139	0.02937
H353	N140	0.03933
H354	N140	0.02394
H355	N141	0.03958
H356	N141	0.02477
H357	N142	0.02522
H358	N143	0.03802
H359	N144	0.02875
H360	N144	0.02549
N135	Ni35	0.05193
N136	Ni36	0.04935
N137	Ni35	0.05147
N141	C435	0.04095
N143	C442	0.04078
Ni35	O138	0.06871
Ni35	O139	0.06810
Ni35	O140	0.04618
Ni35	O142	0.04644
Ni36	O137	0.07156
Ni36	O141	0.04703
O142	H374	0.04882
C433	C440	0.03617
C434	C530	0.05443
C434	C532	0.04295
C435	C436	0.03454
C435	C439	0.05407
C436	H367	0.04126
C436	N145	0.03990
C437	C438	0.03484
C437	H363	0.03179
C437	N145	0.05226
C438	C439	0.04122
C438	H365	0.04137
C440	O145	0.03847
C440	O151	0.04791
C441	C447	0.03362
C441	C545	0.05134
C441	H447	0.03328
C442	C448	0.03415
C443	C449	0.03497
C443	C545	0.04221
C444	C450	0.03499
C445	C446	0.03491
C445	C453	0.05663
C445	N150	0.04060
C446	H366	0.04292
C446	N148	0.04022
C447	H368	0.03976
C447	N146	0.04028
C448	H362	0.03947
C448	N147	0.03925
C449	H369	0.03219
C449	N146	0.04950
C450	H370	0.03154
C450	N147	0.05002
C451	C452	0.03554
C451	H371	0.03168
C451	N148	0.05359
C452	C453	0.04096
C452	H364	0.04292
C453	C455	0.03660
C454	O149	0.03858
C454	O152	0.04850
C454	C474	0.03565
C455	O146	0.04836
C455	O147	0.03798
C456	O148	0.03711
C456	O150	0.04967
C456	C479	0.03645
H372	N149	0.04074
H373	N149	0.02544
H374	N181	0.02494
H375	N184	0.02914
H376	N185	0.02435
H377	N150	0.04125
H378	N150	0.02611
N145	Ni37	0.05351
N146	Ni38	0.05009
N147	Ni37	0.05269
N148	Ni38	0.05172
Ni37	O145	0.06673
Ni37	O146	0.04745
Ni37	O147	0.06653
Ni37	O151	0.04766
Ni38	O148	0.06828
Ni38	O149	0.06744
Ni38	O150	0.04697
Ni38	O152	0.04734
O150	H400	0.04869
C457	C463	0.03483
C457	C553	0.05612
C457	N191	0.04163
C459	C465	0.03553
C459	H387	0.04282
C459	C553	0.04160
C460	C466	0.03563
C460	N155	0.05182
C461	C462	0.03386
C461	C469	0.05302
C461	N156	0.04122
C462	H379	0.04031
C462	N153	0.04019
C463	H381	0.04259
C463	N151	0.04071
C464	H389	0.04248
C465	H382	0.03203
C465	N151	0.05338
C466	H383	0.03241
C466	N152	0.05245
C467	C468	0.03426
C467	H384	0.03205
C467	N153	0.05069
C468	C469	0.04133
C469	C471	0.03564
C470	O155	0.03770
C470	O158	0.04914
C471	O153	0.03754
C472	O154	0.03771
C472	O156	0.04834
C473	C480	0.03628
C474	C562	0.05217
C474	C564	0.04082
C475	C479	0.05305
C476	H380	0.04132
C477	C478	0.03541
C477	H390	0.03206
C477	N154	0.05140
C478	C479	0.04200
C478	N160	0.05031
C480	O159	0.03736
H388	C564	0.04002
H392	N155	0.02937
H393	N156	0.03933
H394	N156	0.02394
H395	N157	0.03958
H396	N157	0.02477
H397	N158	0.02522
H398	N159	0.03802
H399	N160	0.02875
H400	N160	0.02549
N151	Ni39	0.05193
N152	Ni40	0.04935
N153	Ni39	0.05147
Ni39	O154	0.06871
Ni39	O155	0.06810
Ni39	O156	0.04618
Ni39	O158	0.04644
Ni40	O153	0.07156
Ni40	O157	0.04703
C481	C487	0.03483
C481	C577	0.05612
C481	N197	0.04163
C483	C489	0.03553
C483	H409	0.04282
C483	C577	0.04160
C484	C490	0.03563
C484	N165	0.05182
C485	C486	0.03386
C485	C493	0.05302
C485	N166	0.04122
C486	H401	0.04031
C486	N163	0.04019
C487	H403	0.04259
C487	N161	0.04071
C488	H411	0.04248
C489	H404	0.03203
C489	N161	0.05338
C490	H405	0.03241
C490	N162	0.05245
C491	C492	0.03426
C491	H406	0.03205
C491	N163	0.05069
C492	C493	0.04133
C493	C495	0.03564
C494	O163	0.03770
C494	O166	0.04914
C494	C506	0.03628
C495	O161	0.03754
C496	O162	0.03771
C496	O164	0.04834
C496	C511	0.03556
C497	C504	0.03628
C498	C586	0.05217
C498	C588	0.04082
C499	C503	0.05305
C500	H402	0.04132
C501	C502	0.03541
C501	H412	0.03206
C501	N164	0.05140
C502	C503	0.04200
C502	N170	0.05031
C504	O167	0.03736
H410	C588	0.04002
H414	N165	0.02937
H415	N166	0.03933
H416	N166	0.02394
H417	N167	0.03958
H418	N167	0.02477
H419	N168	0.02522
H420	N169	0.03802
H421	N170	0.02875
H422	N170	0.02549
N161	Ni41	0.05193
N162	Ni42	0.04935
N163	Ni41	0.05147
N167	C507	0.04095
N169	C514	0.04078
Ni41	O162	0.06871
Ni41	O163	0.06810
Ni41	O164	0.04618
Ni41	O166	0.04644
Ni42	O161	0.07156
Ni42	O165	0.04703
O166	H436	0.04882
C505	C512	0.03617
C506	C602	0.05443
C506	C604	0.04295
C507	C508	0.03454
C507	C511	0.05407
C508	H429	0.04126
C508	N171	0.03990
C509	C510	0.03484
C509	H425	0.03179
C509	N171	0.05226
C510	C511	0.04122
C510	H427	0.04137
C512	O169	0.03847
C512	O175	0.04791
C513	C519	0.03362
C513	C617	0.05134
C513	H505	0.03328
C514	C520	0.03415
C515	C521	0.03497
C515	C617	0.04221
C516	C522	0.03499
C517	C518	0.03491
C517	C525	0.05663
C517	N176	0.04060
C518	H428	0.04292
C518	N174	0.04022
C519	H430	0.03976
C519	N172	0.04028
C520	H424	0.03947
C520	N173	0.03925
C521	H431	0.03219
C521	N172	0.04950
C522	H432	0.03154
C522	N173	0.05002
C523	C524	0.03554
C523	H433	0.03168
C523	N174	0.05359
C524	C525	0.04096
C524	H426	0.04292
C525	C527	0.03660
C526	O173	0.03858
C526	O176	0.04850
C526	C546	0.03565
C527	O170	0.04836
C527	O171	0.03798
C528	O172	0.03711
C528	O174	0.04967
C528	C551	0.03645
H434	N175	0.04074
H435	N175	0.02544
H436	N203	0.02494
H437	N206	0.02914
H438	N207	0.02435
H439	N176	0.04125
H440	N176	0.02611
N171	Ni43	0.05351
N172	Ni44	0.05009
N173	Ni43	0.05269
N174	Ni44	0.05172
Ni43	O169	0.06673
Ni43	O170	0.04745
Ni43	O171	0.06653
Ni43	O175	0.04766
Ni44	O172	0.06828
Ni44	O173	0.06744
Ni44	O174	0.04697
Ni44	O176	0.04734
O174	H462	0.04869
C529	C535	0.03483
C529	C625	0.05612
C529	N213	0.04163
C531	C537	0.03553
C531	H449	0.04282
C531	C625	0.04160
C532	C538	0.03563
C532	N181	0.05182
C533	C534	0.03386
C533	C541	0.05302
C533	N182	0.04122
C534	H441	0.04031
C534	N179	0.04019
C535	H443	0.04259
C535	N177	0.04071
C536	H451	0.04248
C537	H444	0.03203
C537	N177	0.05338
C538	H445	0.03241
C538	N178	0.05245
C539	C540	0.03426
C539	H446	0.03205
C539	N179	0.05069
C540	C541	0.04133
C541	C543	0.03564
C542	O179	0.03770
C542	O182	0.04914
C542	C554	0.03628
C543	O177	0.03754
C544	O178	0.03771
C544	O180	0.04834
C544	C559	0.03556
C545	C552	0.03628
C546	C634	0.05217
C546	C636	0.04082
C547	C551	0.05305
C548	H442	0.04132
C549	C550	0.03541
C549	H452	0.03206
C549	N180	0.05140
C550	C551	0.04200
C550	N186	0.05031
C552	O183	0.03736
H450	C636	0.04002
H454	N181	0.02937
H455	N182	0.03933
H456	N182	0.02394
H457	N183	0.03958
H458	N183	0.02477
H459	N184	0.02522
H460	N185	0.03802
H461	N186	0.02875
H462	N186	0.02549
N177	Ni45	0.05193
N178	Ni46	0.04935
N179	Ni45	0.05147
N183	C555	0.04095
N185	C562	0.04078
Ni45	O178	0.06871
Ni45	O179	0.06810
Ni45	O180	0.04618
Ni45	O182	0.04644
Ni46	O177	0.07156
Ni46	O181	0.04703
O182	H476	0.04882
C553	C560	0.03617
C554	C650	0.05443
C554	C652	0.04295
C555	C556	0.03454
C555	C559	0.05407
C556	H469	0.04126
C556	N187	0.03990
C557	C558	0.03484
C557	H465	0.03179
C557	N187	0.05226
C558	C559	0.04122
C558	H467	0.04137
C560	O185	0.03847
C560	O191	0.04791
C561	C567	0.03362
C561	C665	0.05134
C561	H545	0.03328
C562	C568	0.03415
C563	C569	0.03497
C563	C665	0.04221
C564	C570	0.03499
C565	C566	0.03491
C565	C573	0.05663
C565	N192	0.04060
C566	H468	0.04292
C566	N190	0.04022
C567	H470	0.03976
C567	N188	0.04028
C568	H464	0.03947
C568	N189	0.03925
C569	H471	0.03219
C569	N188	0.04950
C570	H472	0.03154
C570	N189	0.05002
C571	C572	0.03554
C571	H473	0.03168
C571	N190	0.05359
C572	C573	0.04096
C572	H466	0.04292
C573	C575	0.03660
C574	O189	0.03858
C574	O192	0.04850
C575	O186	0.04836
C575	O187	0.03798
C576	O188	0.03711
C576	O190	0.04967
H474	N191	0.04074
H475	N191	0.02544
H476	N219	0.02494
H477	N222	0.02914
H478	N223	0.02435
H479	N192	0.04125
H480	N192	0.02611
N187	Ni47	0.05351
N188	Ni48	0.05009
N189	Ni47	0.05269
N190	Ni48	0.05172
Ni47	O185	0.06673
Ni47	O186	0.04745
Ni47	O187	0.06653
Ni47	O191	0.04766
Ni48	O188	0.06828
Ni48	O189	0.06744
Ni48	O190	0.04697
Ni48	O192	0.04734
C577	C584	0.03617
C578	C674	0.05443
C578	C676	0.04295
C579	C580	0.03454
C579	C583	0.05407
C580	H487	0.04126
C580	N193	0.03990
C581	C582	0.03484
C581	H483	0.03179
C581	N193	0.05226
C582	C583	0.04122
C582	H485	0.04137
C584	O193	0.03847
C584	O199	0.04791
C585	C591	0.03362
C585	C689	0.05134
C585	H567	0.03328
C586	C592	0.03415
C587	C593	0.03497
C587	C689	0.04221
C588	C594	0.03499
C589	C590	0.03491
C589	C597	0.05663
C589	N198	0.04060
C590	H486	0.04292
C590	N196	0.04022
C591	H488	0.03976
C591	N194	0.04028
C592	H482	0.03947
C592	N195	0.03925
C593	H489	0.03219
C593	N194	0.04950
C594	H490	0.03154
C594	N195	0.05002
C595	C596	0.03554
C595	H491	0.03168
C595	N196	0.05359
C596	C597	0.04096
C596	H484	0.04292
C597	C599	0.03660
C598	O197	0.03858
C598	O200	0.04850
C598	C618	0.03565
C599	O194	0.04836
C599	O195	0.03798
C600	O196	0.03711
C600	O198	0.04967
C600	C623	0.03645
H492	N197	0.04074
H493	N197	0.02544
H494	N229	0.02494
H495	N232	0.02914
H496	N233	0.02435
H497	N198	0.04125
H498	N198	0.02611
N193	Ni49	0.05351
N194	Ni50	0.05009
N195	Ni49	0.05269
N196	Ni50	0.05172
Ni49	O193	0.06673
Ni49	O194	0.04745
Ni49	O195	0.06653
Ni49	O199	0.04766
Ni50	O196	0.06828
Ni50	O197	0.06744
Ni50	O198	0.04697
Ni50	O200	0.04734
O198	H520	0.04869
C601	C607	0.03483
C601	C697	0.05612
C601	N239	0.04163
C603	C609	0.03553
C603	H507	0.04282
C603	C697	0.04160
C604	C610	0.03563
C604	N203	0.05182
C605	C606	0.03386
C605	C613	0.05302
C605	N204	0.04122
C606	H499	0.04031
C606	N201	0.04019
C607	H501	0.04259
C607	N199	0.04071
C608	H509	0.04248
C609	H502	0.03203
C609	N199	0.05338
C610	H503	0.03241
C610	N200	0.05245
C611	C612	0.03426
C611	H504	0.03205
C611	N201	0.05069
C612	C613	0.04133
C613	C615	0.03564
C614	O203	0.03770
C614	O206	0.04914
C614	C626	0.03628
C615	O201	0.03754
C616	O202	0.03771
C616	O204	0.04834
C616	C631	0.03556
C617	C624	0.03628
C618	C706	0.05217
C618	C708	0.04082
C619	C623	0.05305
C620	H500	0.04132
C621	C622	0.03541
C621	H510	0.03206
C621	N202	0.05140
C622	C623	0.04200
C622	N208	0.05031
C624	O207	0.03736
H508	C708	0.04002
H512	N203	0.02937
H513	N204	0.03933
H514	N204	0.02394
H515	N205	0.03958
H516	N205	0.02477
H517	N206	0.02522
H518	N207	0.03802
H519	N208	0.02875
H520	N208	0.02549
N199	Ni51	0.05193
N200	Ni52	0.04935
N201	Ni51	0.05147
N205	C627	0.04095
N207	C634	0.04078
Ni51	O202	0.06871
Ni51	O203	0.06810
Ni51	O204	0.04618
Ni51	O206	0.04644
Ni52	O201	0.07156
Ni52	O205	0.04703
O206	H534	0.04882
C625	C632	0.03617
C626	C722	0.05443
C626	C724	0.04295
C627	C628	0.03454
C627	C631	0.05407
C628	H527	0.04126
C628	N209	0.03990
C629	C630	0.03484
C629	H523	0.03179
C629	N209	0.05226
C630	C631	0.04122
C630	H525	0.04137
C632	O209	0.03847
C632	O215	0.04791
C633	C639	0.03362
C633	C737	0.05134
C633	H607	0.03328
C634	C640	0.03415
C635	C641	0.03497
C635	C737	0.04221
C636	C642	0.03499
C637	C638	0.03491
C637	C645	0.05663
C637	N214	0.04060
C638	H526	0.04292
C638	N212	0.04022
C639	H528	0.03976
C639	N210	0.04028
C640	H522	0.03947
C640	N211	0.03925
C641	H529	0.03219
C641	N210	0.04950
C642	H530	0.03154
C642	N211	0.05002
C643	C644	0.03554
C643	H531	0.03168
C643	N212	0.05359
C644	C645	0.04096
C644	H524	0.04292
C645	C647	0.03660
C646	O213	0.03858
C646	O216	0.04850
C646	C666	0.03565
C647	O210	0.04836
C647	O211	0.03798
C648	O212	0.03711
C648	O214	0.04967
C648	C671	0.03645
H532	N213	0.04074
H533	N213	0.02544
H534	N245	0.02494
H535	N248	0.02914
H536	N249	0.02435
H537	N214	0.04125
H538	N214	0.02611
N209	Ni53	0.05351
N210	Ni54	0.05009
N211	Ni53	0.05269
N212	Ni54	0.05172
Ni53	O209	0.06673
Ni53	O210	0.04745
Ni53	O211	0.06653
Ni53	O215	0.04766
Ni54	O212	0.06828
Ni54	O213	0.06744
Ni54	O214	0.04697
Ni54	O216	0.04734
O214	H560	0.04869
C649	C655	0.03483
C649	C745	0.05612
C649	N255	0.04163
C651	C657	0.03553
C651	H547	0.04282
C651	C745	0.04160
C652	C658	0.03563
C652	N219	0.05182
C653	C654	0.03386
C653	C661	0.05302
C653	N220	0.04122
C654	H539	0.04031
C654	N217	0.04019
C655	H541	0.04259
C655	N215	0.04071
C656	H549	0.04248
C657	H542	0.03203
C657	N215	0.05338
C658	H543	0.03241
C658	N216	0.05245
C659	C660	0.03426
C659	H544	0.03205
C659	N217	0.05069
C660	C661	0.04133
C661	C663	0.03564
C662	O219	0.03770
C662	O222	0.04914
C663	O217	0.03754
C664	O218	0.03771
C664	O220	0.04834
C665	C672	0.03628
C666	C754	0.05217
C666	C756	0.04082
C667	C671	0.05305
C668	H540	0.04132
C669	C670	0.03541
C669	H550	0.03206
C669	N218	0.05140
C670	C671	0.04200
C670	N224	0.05031
C672	O223	0.03736
H548	C756	0.04002
H552	N219	0.02937
H553	N220	0.03933
H554	N220	0.02394
H555	N221	0.03958
H556	N221	0.02477
H557	N222	0.02522
H558	N223	0.03802
H559	N224	0.02875
H560	N224	0.02549
N215	Ni55	0.05193
N216	Ni56	0.04935
N217	Ni55	0.05147
Ni55	O218	0.06871
Ni55	O219	0.06810
Ni55	O220	0.04618
Ni55	O222	0.04644
Ni56	O217	0.07156
Ni56	O221	0.04703
C673	C679	0.03483
C675	C681	0.03553
C675	H569	0.04282
C676	C682	0.03563
C676	N229	0.05182
C677	C678	0.03386
C677	C685	0.05302
C677	N230	0.04122
C678	H561	0.04031
C678	N227	0.04019
C679	H563	0.04259
C679	N225	0.04071
C680	H571	0.04248
C681	H564	0.03203
C681	N225	0.05338
C682	H565	0.03241
C682	N226	0.05245
C683	C684	0.03426
C683	H566	0.03205
C683	N227	0.05069
C684	C685	0.04133
C685	C687	0.03564
C686	O227	0.03770
C686	O230	0.04914
C686	C698	0.03628
C687	O225	0.03754
C688	O226	0.03771
C688	O228	0.04834
C688	C703	0.03556
C689	C696	0.03628
C691	C695	0.05305
C692	H562	0.04132
C693	C694	0.03541
C693	H572	0.03206
C693	N228	0.05140
C694	C695	0.04200
C694	N234	0.05031
C696	O231	0.03736
H574	N229	0.02937
H575	N230	0.03933
H576	N230	0.02394
H577	N231	0.03958
H578	N231	0.02477
H579	N232	0.02522
H580	N233	0.03802
H581	N234	0.02875
H582	N234	0.02549
N225	Ni57	0.05193
N226	Ni58	0.04935
N227	Ni57	0.05147
N231	C699	0.04095
N233	C706	0.04078
Ni57	O226	0.06871
Ni57	O227	0.06810
Ni57	O228	0.04618
Ni57	O230	0.04644
Ni58	O225	0.07156
Ni58	O229	0.04703
O230	H596	0.04882
C697	C704	0.03617
C699	C700	0.03454
C699	C703	0.05407
C700	H589	0.04126
C700	N235	0.03990
C701	C702	0.03484
C701	H585	0.03179
C701	N235	0.05226
C702	C703	0.04122
C702	H587	0.04137
C704	O233	0.03847
C704	O239	0.04791
C705	C711	0.03362
C706	C712	0.03415
C707	C713	0.03497
C708	C714	0.03499
C709	C710	0.03491
C709	C717	0.05663
C709	N240	0.04060
C710	H588	0.04292
C710	N238	0.04022
C711	H590	0.03976
C711	N236	0.04028
C712	H584	0.03947
C712	N237	0.03925
C713	H591	0.03219
C713	N236	0.04950
C714	H592	0.03154
C714	N237	0.05002
C715	C716	0.03554
C715	H593	0.03168
C715	N238	0.05359
C716	C717	0.04096
C716	H586	0.04292
C717	C719	0.03660
C718	O237	0.03858
C718	O240	0.04850
C718	C738	0.03565
C719	O234	0.04836
C719	O235	0.03798
C720	O236	0.03711
C720	O238	0.04967
C720	C743	0.03645
H594	N239	0.04074
H595	N239	0.02544
H599	N240	0.04125
H600	N240	0.02611
N235	Ni59	0.05351
N236	Ni60	0.05009
N237	Ni59	0.05269
N238	Ni60	0.05172
Ni59	O233	0.06673
Ni59	O234	0.04745
Ni59	O235	0.06653
Ni59	O239	0.04766
Ni60	O236	0.06828
Ni60	O237	0.06744
Ni60	O238	0.04697
Ni60	O240	0.04734
O238	H622	0.04869
C721	C727	0.03483
C723	C729	0.03553
C723	H609	0.04282
C724	C730	0.03563
C724	N245	0.05182
C725	C726	0.03386
C725	C733	0.05302
C725	N246	0.04122
C726	H601	0.04031
C726	N243	0.04019
C727	H603	0.04259
C727	N241	0.04071
C728	H611	0.04248
C729	H604	0.03203
C729	N241	0.05338
C730	H605	0.03241
C730	N242	0.05245
C731	C732	0.03426
C731	H606	0.03205
C731	N243	0.05069
C732	C733	0.04133
C733	C735	0.03564
C734	O243	0.03770
C734	O246	0.04914
C734	C746	0.03628
C735	O241	0.03754
C736	O242	0.03771
C736	O244	0.04834
C736	C751	0.03556
C737	C744	0.03628
C739	C743	0.05305
C740	H602	0.04132
C741	C742	0.03541
C741	H612	0.03206
C741	N244	0.05140
C742	C743	0.04200
C742	N250	0.05031
C744	O247	0.03736
H614	N245	0.02937
H615	N246	0.03933
H616	N246	0.02394
H617	N247	0.03958
H618	N247	0.02477
H619	N248	0.02522
H620	N249	0.03802
H621	N250	0.02875
H622	N250	0.02549
N241	Ni61	0.05193
N242	Ni62	0.04935
N243	Ni61	0.05147
N247	C747	0.04095
N249	C754	0.04078
Ni61	O242	0.06871
Ni61	O243	0.06810
Ni61	O244	0.04618
Ni61	O246	0.04644
Ni62	O241	0.07156
Ni62	O245	0.04703
O246	H636	0.04882
C745	C752	0.03617
C747	C748	0.03454
C747	C751	0.05407
C748	H629	0.04126
C748	N251	0.03990
C749	C750	0.03484
C749	H625	0.03179
C749	N251	0.05226
C750	C751	0.04122
C750	H627	0.04137
C752	O249	0.03847
C752	O255	0.04791
C753	C759	0.03362
C754	C760	0.03415
C755	C761	0.03497
C756	C762	0.03499
C757	C758	0.03491
C757	C765	0.05663
C757	N256	0.04060
C758	H628	0.04292
C758	N254	0.04022
C759	H630	0.03976
C759	N252	0.04028
C760	H624	0.03947
C760	N253	0.03925
C761	H631	0.03219
C761	N252	0.04950
C762	H632	0.03154
C762	N253	0.05002
C763	C764	0.03554
C763	H633	0.03168
C763	N254	0.05359
C764	C765	0.04096
C764	H626	0.04292
C765	C767	0.03660
C766	O253	0.03858
C766	O256	0.04850
C767	O250	0.04836
C767	O251	0.03798
C768	O252	0.03711
C768	O254	0.04967
H634	N255	0.04074
H635	N255	0.02544
H639	N256	0.04125
H640	N256	0.02611
N251	Ni63	0.05351
N252	Ni64	0.05009
N253	Ni63	0.05269
N254	Ni64	0.05172
Ni63	O249	0.06673
Ni63	O250	0.04745
Ni63	O251	0.06653
Ni63	O255	0.04766
Ni64	O252	0.06828
Ni64	O253	0.06744
Ni64	O254	0.04697
Ni64	O256	0.04734
