data_NiPyC2_relax_sc211_ortho_functionalized_NH2_pbesol_relaxNiPyC2_relax_sc211_ortho_functionalized_NH2_pbesol_relax_comp1_PM
_symmetry_space_group_name_H-M	'P1'
_cell_length_a	25.011234
_cell_length_b	25.046824
_cell_length_c	20.553620
_cell_angle_alpha	90.000000
_cell_angle_beta	91.268973
_cell_angle_gamma	90.000000
_symmetry_Int_Tables_number 1

loop_
_symmetry_equiv_pos_as_xyz
'x,y,z'

loop_
_atom_site_label
_atom_site_type_symbol
_atom_site_fract_x
_atom_site_fract_y
_atom_site_fract_z
C1	C	0.138189	0.491877	0.266804
C2	C	0.026780	0.010715	0.002658
C3	C	0.188739	0.014863	0.277331
C4	C	0.078154	0.492343	0.015089
C5	C	0.224213	0.491723	0.322034
C6	C	0.108361	0.013661	0.066776
C7	C	0.090063	0.251074	0.278240
C8	C	0.226941	0.235410	0.012248
C9	C	0.116548	0.294884	0.308200
C10	C	0.240305	0.192592	0.053033
C11	C	0.124343	0.446695	0.303001
C12	C	0.005669	0.050660	0.043497
C13	C	0.208168	0.445018	0.355486
C14	C	0.085003	0.053087	0.105045
C15	C	0.042730	0.311748	0.372200
C16	C	0.156967	0.195584	0.102375
C17	C	0.014443	0.268703	0.344855
C18	C	0.141001	0.239339	0.063226
C19	C	0.038503	0.238683	0.296318
C20	C	0.176756	0.259247	0.018687
C21	C	0.205358	0.061624	0.240119
C22	C	0.099115	0.449188	0.475587
C23	C	0.009469	0.194418	0.263060
C24	C	0.160078	0.304822	0.479305
C25	C	0.407421	0.481450	0.257887
C26	C	0.274037	0.016861	0.017083
C27	C	0.458445	0.000975	0.271408
C28	C	0.327002	0.002251	0.031921
C29	C	0.486717	0.480576	0.325535
C30	C	0.351529	0.022988	0.087598
C31	C	0.342454	0.269471	0.257053
C32	C	0.487067	0.239223	0.016377
C33	C	0.369376	0.305503	0.299537
C34	C	0.004565	0.196169	0.054954
C35	C	0.384256	0.444306	0.300774
C36	C	0.248612	0.054048	0.057325
C37	C	0.462247	0.442080	0.364517
C38	C	0.322906	0.058953	0.127211
C39	C	0.300038	0.301252	0.372922
C40	C	0.425157	0.195651	0.112180
C41	C	0.272720	0.263300	0.334840
C42	C	0.403170	0.236194	0.071319
C43	C	0.293865	0.248033	0.275049
C44	C	0.435398	0.259431	0.024895
C45	C	0.480490	0.043425	0.230542
C46	C	0.359635	0.465900	0.491082
C47	C	0.266165	0.208201	0.233423
C48	C	0.415175	0.304883	0.486575
H1	H	0.109086	0.009008	0.232992
H2	H	0.251800	0.000826	0.475559
H3	H	0.026804	0.493959	0.338511
H4	H	0.148384	0.499503	0.078767
H5	H	0.112166	0.227999	0.243052
H6	H	0.013638	0.256070	0.480677
H7	H	0.043485	0.177849	0.047686
H8	H	0.084854	0.428717	0.298247
H9	H	0.208118	0.067721	0.046148
H10	H	0.106699	0.068453	0.147321
H11	H	0.025542	0.335481	0.410608
H12	H	0.235867	0.246367	0.352594
H13	H	0.101494	0.256801	0.068870
H14	H	0.383628	0.493758	0.215616
H15	H	0.001441	0.495068	0.463595
H16	H	0.263952	0.008082	0.331724
H17	H	0.391902	0.011752	0.102955
H18	H	0.361756	0.259001	0.211891
H19	H	0.255702	0.249861	0.477616
H20	H	0.279313	0.173407	0.051438
H21	H	0.483490	0.425138	0.406292
H22	H	0.284065	0.314638	0.418874
H23	H	0.475033	0.259393	0.362470
H24	H	0.362710	0.250366	0.079799
H25	H	0.227222	0.386593	0.420590
H26	H	0.277971	0.434049	0.412295
H27	H	0.438354	0.092356	0.064730
H28	H	0.431420	0.040606	0.006250
H29	H	0.187577	0.334855	0.315615
H30	H	0.185971	0.279375	0.262701
H31	H	0.136650	0.144418	0.175575
H32	H	0.087842	0.191673	0.155371
H33	H	0.315871	0.401582	0.319725
H34	H	0.312190	0.444198	0.252034
H35	H	0.323978	0.100324	0.212446
H36	H	0.386703	0.071252	0.189518
H37	H	0.440454	0.344305	0.317310
H38	H	0.436824	0.306154	0.246100
H39	H	0.418864	0.158710	0.200200
H40	H	0.358122	0.186147	0.169920
N1	N	0.157624	0.423702	0.346651
N2	N	0.035555	0.072125	0.093987
N3	N	0.092239	0.325188	0.354591
N4	N	0.206990	0.173240	0.097571
N5	N	0.412087	0.424229	0.353720
N6	N	0.271846	0.075189	0.110794
N7	N	0.346884	0.323207	0.356093
N8	N	0.475452	0.174778	0.102606
N9	N	0.241431	0.419092	0.395675
N10	N	0.455392	0.066502	0.033071
N11	N	0.166209	0.306585	0.290654
N12	N	0.124102	0.174971	0.145545
N13	N	0.333761	0.428476	0.289949
N14	N	0.345703	0.077511	0.181519
N15	N	0.418112	0.322800	0.284567
N16	N	0.398232	0.177262	0.162626
Ni1	Ni	0.127975	0.375814	0.413638
Ni2	Ni	0.236388	0.128541	0.166440
Ni3	Ni	0.381478	0.375054	0.418287
Ni4	Ni	0.007236	0.118261	0.161934
O1	O	0.036017	0.171704	0.216418
O2	O	0.189378	0.325501	0.434757
O3	O	0.175717	0.082508	0.194347
O4	O	0.069430	0.425169	0.432544
O5	O	0.217058	0.197817	0.237912
O6	O	0.114018	0.326145	0.486028
O7	O	0.028025	0.060587	0.234138
O8	O	0.147107	0.431891	0.481236
O9	O	0.293126	0.181479	0.190702
O10	O	0.443045	0.328367	0.442642
O11	O	0.449850	0.067425	0.187240
O12	O	0.335663	0.430378	0.454485
O13	O	0.463214	0.180963	0.276973
O14	O	0.368357	0.324677	0.493497
O15	O	0.251330	0.083410	0.247901
O16	O	0.409415	0.469909	0.493520
C49	C	0.138189	0.491877	0.766803
C50	C	0.026780	0.010715	0.502658
C51	C	0.188739	0.014863	0.777331
C52	C	0.078154	0.492343	0.515089
C53	C	0.224213	0.491723	0.822034
C54	C	0.108361	0.013661	0.566775
C55	C	0.090063	0.251074	0.778240
C56	C	0.226941	0.235410	0.512248
C57	C	0.116548	0.294884	0.808200
C58	C	0.240305	0.192592	0.553033
C59	C	0.124343	0.446695	0.803001
C60	C	0.005669	0.050660	0.543497
C61	C	0.208168	0.445018	0.855486
C62	C	0.085003	0.053087	0.605046
C63	C	0.042730	0.311748	0.872200
C64	C	0.156967	0.195584	0.602375
C65	C	0.014443	0.268703	0.844855
C66	C	0.141001	0.239339	0.563226
C67	C	0.038503	0.238683	0.796318
C68	C	0.176756	0.259247	0.518687
C69	C	0.205358	0.061624	0.740119
C70	C	0.099115	0.449188	0.975587
C71	C	0.009469	0.194418	0.763060
C72	C	0.160078	0.304822	0.979305
C73	C	0.407421	0.481450	0.757887
C74	C	0.274037	0.016861	0.517083
C75	C	0.458445	0.000975	0.771408
C76	C	0.327002	0.002251	0.531921
C77	C	0.486717	0.480576	0.825535
C78	C	0.351529	0.022988	0.587599
C79	C	0.342454	0.269471	0.757053
C80	C	0.487067	0.239223	0.516378
C81	C	0.369376	0.305503	0.799537
C82	C	0.004565	0.196169	0.554953
C83	C	0.384256	0.444306	0.800774
C84	C	0.248612	0.054048	0.557325
C85	C	0.462247	0.442080	0.864517
C86	C	0.322906	0.058953	0.627211
C87	C	0.300038	0.301252	0.872923
C88	C	0.425157	0.195651	0.612179
C89	C	0.272720	0.263300	0.834839
C90	C	0.403170	0.236194	0.571319
C91	C	0.293865	0.248033	0.775049
C92	C	0.435398	0.259431	0.524895
C93	C	0.480490	0.043425	0.730542
C94	C	0.359635	0.465900	0.991082
C95	C	0.266165	0.208201	0.733422
C96	C	0.415175	0.304883	0.986575
H41	H	0.109086	0.009008	0.732992
H42	H	0.251800	0.000826	0.975559
H43	H	0.026804	0.493959	0.838511
H44	H	0.148384	0.499503	0.578767
H45	H	0.112166	0.227999	0.743051
H46	H	0.013638	0.256070	0.980676
H47	H	0.043485	0.177849	0.547686
H48	H	0.084854	0.428717	0.798247
H49	H	0.208118	0.067721	0.546148
H50	H	0.106699	0.068453	0.647321
H51	H	0.025542	0.335481	0.910608
H52	H	0.235867	0.246367	0.852594
H53	H	0.101494	0.256801	0.568870
H54	H	0.383628	0.493758	0.715616
H55	H	0.001441	0.495068	0.963596
H56	H	0.263952	0.008082	0.831724
H57	H	0.391902	0.011752	0.602955
H58	H	0.361756	0.259001	0.711890
H59	H	0.255702	0.249861	0.977616
H60	H	0.279313	0.173407	0.551438
H61	H	0.483490	0.425138	0.906292
H62	H	0.284065	0.314638	0.918874
H63	H	0.475033	0.259393	0.862470
H64	H	0.362710	0.250366	0.579799
H65	H	0.227222	0.386593	0.920590
H66	H	0.277971	0.434049	0.912295
H67	H	0.438354	0.092356	0.564730
H68	H	0.431420	0.040606	0.506250
H69	H	0.187577	0.334855	0.815615
H70	H	0.185971	0.279375	0.762701
H71	H	0.136650	0.144418	0.675575
H72	H	0.087842	0.191673	0.655371
H73	H	0.315871	0.401582	0.819725
H74	H	0.312190	0.444198	0.752034
H75	H	0.323978	0.100324	0.712446
H76	H	0.386703	0.071252	0.689518
H77	H	0.440454	0.344305	0.817310
H78	H	0.436824	0.306154	0.746101
H79	H	0.418864	0.158710	0.700199
H80	H	0.358122	0.186147	0.669920
N17	N	0.157624	0.423702	0.846651
N18	N	0.035555	0.072125	0.593987
N19	N	0.092239	0.325188	0.854591
N20	N	0.206990	0.173240	0.597571
N21	N	0.412087	0.424229	0.853720
N22	N	0.271846	0.075189	0.610794
N23	N	0.346884	0.323207	0.856093
N24	N	0.475452	0.174778	0.602606
N25	N	0.241431	0.419092	0.895675
N26	N	0.455392	0.066502	0.533072
N27	N	0.166209	0.306585	0.790654
N28	N	0.124102	0.174971	0.645545
N29	N	0.333761	0.428476	0.789949
N30	N	0.345703	0.077511	0.681519
N31	N	0.418112	0.322800	0.784567
N32	N	0.398232	0.177262	0.662626
Ni5	Ni	0.127975	0.375814	0.913638
Ni6	Ni	0.236388	0.128541	0.666440
Ni7	Ni	0.381478	0.375054	0.918287
Ni8	Ni	0.007236	0.118261	0.661934
O17	O	0.036017	0.171704	0.716418
O18	O	0.189378	0.325501	0.934757
O19	O	0.175717	0.082508	0.694347
O20	O	0.069430	0.425169	0.932544
O21	O	0.217058	0.197817	0.737912
O22	O	0.114018	0.326145	0.986028
O23	O	0.028025	0.060587	0.734138
O24	O	0.147107	0.431891	0.981236
O25	O	0.293126	0.181479	0.690702
O26	O	0.443045	0.328367	0.942643
O27	O	0.449850	0.067425	0.687240
O28	O	0.335663	0.430378	0.954485
O29	O	0.463214	0.180963	0.776973
O30	O	0.368357	0.324677	0.993497
O31	O	0.251330	0.083410	0.747901
O32	O	0.409415	0.469909	0.993521
C97	C	0.138189	0.991877	0.266804
C98	C	0.026780	0.510715	0.002658
C99	C	0.188739	0.514863	0.277331
C100	C	0.078154	0.992344	0.015089
C101	C	0.224213	0.991723	0.322034
C102	C	0.108361	0.513660	0.066776
C103	C	0.090063	0.751074	0.278240
C104	C	0.226941	0.735410	0.012248
C105	C	0.116548	0.794884	0.308200
C106	C	0.240305	0.692592	0.053033
C107	C	0.124343	0.946695	0.303001
C108	C	0.005669	0.550660	0.043497
C109	C	0.208168	0.945018	0.355486
C110	C	0.085003	0.553087	0.105045
C111	C	0.042730	0.811748	0.372200
C112	C	0.156967	0.695585	0.102375
C113	C	0.014443	0.768703	0.344855
C114	C	0.141001	0.739339	0.063226
C115	C	0.038503	0.738683	0.296318
C116	C	0.176756	0.759247	0.018687
C117	C	0.205358	0.561624	0.240119
C118	C	0.099115	0.949188	0.475587
C119	C	0.009469	0.694419	0.263060
C120	C	0.160078	0.804822	0.479305
C121	C	0.407421	0.981450	0.257887
C122	C	0.274037	0.516860	0.017083
C123	C	0.458445	0.500975	0.271408
C124	C	0.327002	0.502251	0.031921
C125	C	0.486717	0.980576	0.325535
C126	C	0.351529	0.522988	0.087598
C127	C	0.342454	0.769470	0.257053
C128	C	0.487067	0.739223	0.016377
C129	C	0.369376	0.805503	0.299537
C130	C	0.004565	0.696169	0.054954
C131	C	0.384256	0.944306	0.300774
C132	C	0.248612	0.554048	0.057325
C133	C	0.462247	0.942080	0.364517
C134	C	0.322906	0.558953	0.127211
C135	C	0.300038	0.801252	0.372922
C136	C	0.425157	0.695650	0.112180
C137	C	0.272720	0.763300	0.334840
C138	C	0.403170	0.736193	0.071319
C139	C	0.293865	0.748033	0.275049
C140	C	0.435398	0.759431	0.024895
C141	C	0.480490	0.543426	0.230542
C142	C	0.359635	0.965900	0.491082
C143	C	0.266165	0.708201	0.233423
C144	C	0.415175	0.804882	0.486575
H81	H	0.109086	0.509008	0.232992
H82	H	0.251800	0.500826	0.475559
H83	H	0.026804	0.993959	0.338511
H84	H	0.148384	0.999503	0.078767
H85	H	0.112166	0.728000	0.243052
H86	H	0.013638	0.756070	0.480677
H87	H	0.043485	0.677849	0.047686
H88	H	0.084854	0.928717	0.298247
H89	H	0.208118	0.567721	0.046148
H90	H	0.106699	0.568453	0.147321
H91	H	0.025542	0.835481	0.410608
H92	H	0.235867	0.746367	0.352594
H93	H	0.101494	0.756801	0.068870
H94	H	0.383628	0.993758	0.215616
H95	H	0.001441	0.995068	0.463595
H96	H	0.263952	0.508082	0.331724
H97	H	0.391902	0.511752	0.102955
H98	H	0.361756	0.759001	0.211891
H99	H	0.255702	0.749861	0.477616
H100	H	0.279313	0.673407	0.051438
H101	H	0.483490	0.925138	0.406292
H102	H	0.284065	0.814639	0.418874
H103	H	0.475033	0.759393	0.362470
H104	H	0.362710	0.750366	0.079799
H105	H	0.227222	0.886594	0.420590
H106	H	0.277971	0.934049	0.412295
H107	H	0.438354	0.592356	0.064730
H108	H	0.431420	0.540605	0.006250
H109	H	0.187577	0.834855	0.315615
H110	H	0.185971	0.779375	0.262701
H111	H	0.136650	0.644417	0.175575
H112	H	0.087842	0.691674	0.155371
H113	H	0.315871	0.901582	0.319725
H114	H	0.312190	0.944198	0.252034
H115	H	0.323978	0.600324	0.212446
H116	H	0.386703	0.571252	0.189518
H117	H	0.440454	0.844305	0.317310
H118	H	0.436824	0.806153	0.246100
H119	H	0.418864	0.658710	0.200200
H120	H	0.358122	0.686147	0.169920
N33	N	0.157624	0.923702	0.346651
N34	N	0.035555	0.572125	0.093987
N35	N	0.092239	0.825188	0.354591
N36	N	0.206990	0.673240	0.097571
N37	N	0.412087	0.924229	0.353720
N38	N	0.271846	0.575188	0.110794
N39	N	0.346884	0.823206	0.356093
N40	N	0.475452	0.674778	0.102606
N41	N	0.241431	0.919091	0.395675
N42	N	0.455392	0.566501	0.033071
N43	N	0.166209	0.806585	0.290654
N44	N	0.124102	0.674971	0.145545
N45	N	0.333761	0.928476	0.289949
N46	N	0.345703	0.577511	0.181519
N47	N	0.418112	0.822800	0.284567
N48	N	0.398232	0.677262	0.162626
Ni9	Ni	0.127975	0.875814	0.413638
Ni10	Ni	0.236388	0.628541	0.166440
Ni11	Ni	0.381478	0.875054	0.418287
Ni12	Ni	0.007236	0.618261	0.161934
O33	O	0.036017	0.671704	0.216418
O34	O	0.189378	0.825501	0.434757
O35	O	0.175717	0.582508	0.194347
O36	O	0.069430	0.925169	0.432544
O37	O	0.217058	0.697817	0.237912
O38	O	0.114018	0.826145	0.486028
O39	O	0.028025	0.560587	0.234138
O40	O	0.147107	0.931891	0.481236
O41	O	0.293126	0.681479	0.190702
O42	O	0.443045	0.828367	0.442642
O43	O	0.449850	0.567425	0.187240
O44	O	0.335663	0.930378	0.454485
O45	O	0.463214	0.680963	0.276973
O46	O	0.368357	0.824677	0.493497
O47	O	0.251330	0.583411	0.247901
O48	O	0.409415	0.969909	0.493520
C145	C	0.138189	0.991877	0.766803
C146	C	0.026780	0.510715	0.502658
C147	C	0.188739	0.514863	0.777331
C148	C	0.078154	0.992344	0.515089
C149	C	0.224213	0.991723	0.822034
C150	C	0.108361	0.513660	0.566775
C151	C	0.090063	0.751074	0.778240
C152	C	0.226941	0.735410	0.512248
C153	C	0.116548	0.794884	0.808200
C154	C	0.240305	0.692592	0.553033
C155	C	0.124343	0.946695	0.803001
C156	C	0.005669	0.550660	0.543497
C157	C	0.208168	0.945018	0.855486
C158	C	0.085003	0.553087	0.605046
C159	C	0.042730	0.811748	0.872200
C160	C	0.156967	0.695585	0.602375
C161	C	0.014443	0.768703	0.844855
C162	C	0.141001	0.739339	0.563226
C163	C	0.038503	0.738683	0.796318
C164	C	0.176756	0.759247	0.518687
C165	C	0.205358	0.561624	0.740119
C166	C	0.099115	0.949188	0.975587
C167	C	0.009469	0.694419	0.763060
C168	C	0.160078	0.804822	0.979305
C169	C	0.407421	0.981450	0.757887
C170	C	0.274037	0.516860	0.517083
C171	C	0.458445	0.500975	0.771408
C172	C	0.327002	0.502251	0.531921
C173	C	0.486717	0.980576	0.825535
C174	C	0.351529	0.522988	0.587599
C175	C	0.342454	0.769470	0.757053
C176	C	0.487067	0.739223	0.516378
C177	C	0.369376	0.805503	0.799537
C178	C	0.004565	0.696169	0.554953
C179	C	0.384256	0.944306	0.800774
C180	C	0.248612	0.554048	0.557325
C181	C	0.462247	0.942080	0.864517
C182	C	0.322906	0.558953	0.627211
C183	C	0.300038	0.801252	0.872923
C184	C	0.425157	0.695650	0.612179
C185	C	0.272720	0.763300	0.834839
C186	C	0.403170	0.736193	0.571319
C187	C	0.293865	0.748033	0.775049
C188	C	0.435398	0.759431	0.524895
C189	C	0.480490	0.543426	0.730542
C190	C	0.359635	0.965900	0.991082
C191	C	0.266165	0.708201	0.733422
C192	C	0.415175	0.804882	0.986575
H121	H	0.109086	0.509008	0.732992
H122	H	0.251800	0.500826	0.975559
H123	H	0.026804	0.993959	0.838511
H124	H	0.148384	0.999503	0.578767
H125	H	0.112166	0.728000	0.743051
H126	H	0.013638	0.756070	0.980676
H127	H	0.043485	0.677849	0.547686
H128	H	0.084854	0.928717	0.798247
H129	H	0.208118	0.567721	0.546148
H130	H	0.106699	0.568453	0.647321
H131	H	0.025542	0.835481	0.910608
H132	H	0.235867	0.746367	0.852594
H133	H	0.101494	0.756801	0.568870
H134	H	0.383628	0.993758	0.715616
H135	H	0.001441	0.995068	0.963596
H136	H	0.263952	0.508082	0.831724
H137	H	0.391902	0.511752	0.602955
H138	H	0.361756	0.759001	0.711890
H139	H	0.255702	0.749861	0.977616
H140	H	0.279313	0.673407	0.551438
H141	H	0.483490	0.925138	0.906292
H142	H	0.284065	0.814639	0.918874
H143	H	0.475033	0.759393	0.862470
H144	H	0.362710	0.750366	0.579799
H145	H	0.227222	0.886594	0.920590
H146	H	0.277971	0.934049	0.912295
H147	H	0.438354	0.592356	0.564730
H148	H	0.431420	0.540605	0.506250
H149	H	0.187577	0.834855	0.815615
H150	H	0.185971	0.779375	0.762701
H151	H	0.136650	0.644417	0.675575
H152	H	0.087842	0.691674	0.655371
H153	H	0.315871	0.901582	0.819725
H154	H	0.312190	0.944198	0.752034
H155	H	0.323978	0.600324	0.712446
H156	H	0.386703	0.571252	0.689518
H157	H	0.440454	0.844305	0.817310
H158	H	0.436824	0.806153	0.746101
H159	H	0.418864	0.658710	0.700199
H160	H	0.358122	0.686147	0.669920
N49	N	0.157624	0.923702	0.846651
N50	N	0.035555	0.572125	0.593987
N51	N	0.092239	0.825188	0.854591
N52	N	0.206990	0.673240	0.597571
N53	N	0.412087	0.924229	0.853720
N54	N	0.271846	0.575188	0.610794
N55	N	0.346884	0.823206	0.856093
N56	N	0.475452	0.674778	0.602606
N57	N	0.241431	0.919091	0.895675
N58	N	0.455392	0.566501	0.533072
N59	N	0.166209	0.806585	0.790654
N60	N	0.124102	0.674971	0.645545
N61	N	0.333761	0.928476	0.789949
N62	N	0.345703	0.577511	0.681519
N63	N	0.418112	0.822800	0.784567
N64	N	0.398232	0.677262	0.662626
Ni13	Ni	0.127975	0.875814	0.913638
Ni14	Ni	0.236388	0.628541	0.666440
Ni15	Ni	0.381478	0.875054	0.918287
Ni16	Ni	0.007236	0.618261	0.661934
O49	O	0.036017	0.671704	0.716418
O50	O	0.189378	0.825501	0.934757
O51	O	0.175717	0.582508	0.694347
O52	O	0.069430	0.925169	0.932544
O53	O	0.217058	0.697817	0.737912
O54	O	0.114018	0.826145	0.986028
O55	O	0.028025	0.560587	0.734138
O56	O	0.147107	0.931891	0.981236
O57	O	0.293126	0.681479	0.690702
O58	O	0.443045	0.828367	0.942643
O59	O	0.449850	0.567425	0.687240
O60	O	0.335663	0.930378	0.954485
O61	O	0.463214	0.680963	0.776973
O62	O	0.368357	0.824677	0.993497
O63	O	0.251330	0.583411	0.747901
O64	O	0.409415	0.969909	0.993521
C193	C	0.638189	0.491877	0.266804
C194	C	0.526780	0.010715	0.002658
C195	C	0.688739	0.014863	0.277331
C196	C	0.578153	0.492343	0.015089
C197	C	0.724213	0.491723	0.322034
C198	C	0.608361	0.013661	0.066776
C199	C	0.590063	0.251074	0.278240
C200	C	0.726942	0.235410	0.012248
C201	C	0.616548	0.294884	0.308200
C202	C	0.740305	0.192592	0.053033
C203	C	0.624343	0.446695	0.303001
C204	C	0.505669	0.050660	0.043497
C205	C	0.708168	0.445018	0.355486
C206	C	0.585004	0.053087	0.105045
C207	C	0.542731	0.311748	0.372200
C208	C	0.656967	0.195584	0.102375
C209	C	0.514443	0.268703	0.344855
C210	C	0.641000	0.239339	0.063226
C211	C	0.538502	0.238683	0.296318
C212	C	0.676756	0.259247	0.018687
C213	C	0.705358	0.061624	0.240119
C214	C	0.599115	0.449188	0.475587
C215	C	0.509469	0.194418	0.263060
C216	C	0.660078	0.304822	0.479305
C217	C	0.907421	0.481450	0.257887
C218	C	0.774037	0.016861	0.017083
C219	C	0.958445	0.000975	0.271408
C220	C	0.827001	0.002251	0.031921
C221	C	0.986717	0.480576	0.325535
C222	C	0.851529	0.022988	0.087598
C223	C	0.842454	0.269471	0.257053
C224	C	0.987067	0.239223	0.016377
C225	C	0.869376	0.305503	0.299537
C226	C	0.504565	0.196169	0.054954
C227	C	0.884256	0.444306	0.300774
C228	C	0.748611	0.054048	0.057325
C229	C	0.962247	0.442080	0.364517
C230	C	0.822906	0.058953	0.127211
C231	C	0.800038	0.301252	0.372922
C232	C	0.925157	0.195651	0.112180
C233	C	0.772720	0.263300	0.334840
C234	C	0.903169	0.236194	0.071319
C235	C	0.793865	0.248033	0.275049
C236	C	0.935398	0.259431	0.024895
C237	C	0.980490	0.043425	0.230542
C238	C	0.859635	0.465900	0.491082
C239	C	0.766166	0.208201	0.233423
C240	C	0.915175	0.304883	0.486575
H161	H	0.609085	0.009008	0.232992
H162	H	0.751800	0.000826	0.475559
H163	H	0.526803	0.493959	0.338511
H164	H	0.648384	0.499503	0.078767
H165	H	0.612166	0.227999	0.243052
H166	H	0.513638	0.256070	0.480677
H167	H	0.543485	0.177849	0.047686
H168	H	0.584854	0.428717	0.298247
H169	H	0.708118	0.067721	0.046148
H170	H	0.606699	0.068453	0.147321
H171	H	0.525543	0.335481	0.410608
H172	H	0.735867	0.246367	0.352594
H173	H	0.601494	0.256801	0.068870
H174	H	0.883628	0.493758	0.215616
H175	H	0.501441	0.495068	0.463595
H176	H	0.763952	0.008082	0.331724
H177	H	0.891902	0.011752	0.102955
H178	H	0.861756	0.259001	0.211891
H179	H	0.755702	0.249861	0.477616
H180	H	0.779313	0.173407	0.051438
H181	H	0.983490	0.425138	0.406292
H182	H	0.784065	0.314638	0.418874
H183	H	0.975033	0.259393	0.362470
H184	H	0.862710	0.250366	0.079799
H185	H	0.727222	0.386593	0.420590
H186	H	0.777972	0.434049	0.412295
H187	H	0.938354	0.092356	0.064730
H188	H	0.931420	0.040606	0.006250
H189	H	0.687577	0.334855	0.315615
H190	H	0.685971	0.279375	0.262701
H191	H	0.636650	0.144418	0.175575
H192	H	0.587842	0.191673	0.155371
H193	H	0.815871	0.401582	0.319725
H194	H	0.812190	0.444198	0.252034
H195	H	0.823978	0.100324	0.212446
H196	H	0.886703	0.071252	0.189518
H197	H	0.940454	0.344305	0.317310
H198	H	0.936824	0.306154	0.246100
H199	H	0.918864	0.158710	0.200200
H200	H	0.858122	0.186147	0.169920
N65	N	0.657624	0.423702	0.346651
N66	N	0.535555	0.072125	0.093987
N67	N	0.592239	0.325188	0.354591
N68	N	0.706990	0.173240	0.097571
N69	N	0.912087	0.424229	0.353720
N70	N	0.771846	0.075189	0.110794
N71	N	0.846885	0.323207	0.356093
N72	N	0.975452	0.174778	0.102606
N73	N	0.741432	0.419092	0.395675
N74	N	0.955391	0.066502	0.033071
N75	N	0.666208	0.306585	0.290654
N76	N	0.624101	0.174971	0.145545
N77	N	0.833762	0.428476	0.289949
N78	N	0.845703	0.077511	0.181519
N79	N	0.918112	0.322800	0.284567
N80	N	0.898232	0.177262	0.162626
Ni17	Ni	0.627976	0.375814	0.413638
Ni18	Ni	0.736387	0.128541	0.166440
Ni19	Ni	0.881478	0.375054	0.418287
Ni20	Ni	0.507236	0.118261	0.161934
O65	O	0.536017	0.171704	0.216418
O66	O	0.689377	0.325501	0.434757
O67	O	0.675717	0.082508	0.194347
O68	O	0.569430	0.425169	0.432544
O69	O	0.717059	0.197817	0.237912
O70	O	0.614018	0.326145	0.486028
O71	O	0.528025	0.060587	0.234138
O72	O	0.647107	0.431891	0.481236
O73	O	0.793126	0.181479	0.190702
O74	O	0.943045	0.328367	0.442642
O75	O	0.949850	0.067425	0.187240
O76	O	0.835663	0.430378	0.454485
O77	O	0.963214	0.180963	0.276973
O78	O	0.868357	0.324677	0.493497
O79	O	0.751330	0.083410	0.247901
O80	O	0.909415	0.469909	0.493520
C241	C	0.638189	0.491877	0.766803
C242	C	0.526780	0.010715	0.502658
C243	C	0.688739	0.014863	0.777331
C244	C	0.578153	0.492343	0.515089
C245	C	0.724213	0.491723	0.822034
C246	C	0.608361	0.013661	0.566775
C247	C	0.590063	0.251074	0.778240
C248	C	0.726942	0.235410	0.512248
C249	C	0.616548	0.294884	0.808200
C250	C	0.740305	0.192592	0.553033
C251	C	0.624343	0.446695	0.803001
C252	C	0.505669	0.050660	0.543497
C253	C	0.708168	0.445018	0.855486
C254	C	0.585004	0.053087	0.605046
C255	C	0.542731	0.311748	0.872200
C256	C	0.656967	0.195584	0.602375
C257	C	0.514443	0.268703	0.844855
C258	C	0.641000	0.239339	0.563226
C259	C	0.538502	0.238683	0.796318
C260	C	0.676756	0.259247	0.518687
C261	C	0.705358	0.061624	0.740119
C262	C	0.599115	0.449188	0.975587
C263	C	0.509469	0.194418	0.763060
C264	C	0.660078	0.304822	0.979305
C265	C	0.907421	0.481450	0.757887
C266	C	0.774037	0.016861	0.517083
C267	C	0.958445	0.000975	0.771408
C268	C	0.827001	0.002251	0.531921
C269	C	0.986717	0.480576	0.825535
C270	C	0.851529	0.022988	0.587599
C271	C	0.842454	0.269471	0.757053
C272	C	0.987067	0.239223	0.516378
C273	C	0.869376	0.305503	0.799537
C274	C	0.504565	0.196169	0.554953
C275	C	0.884256	0.444306	0.800774
C276	C	0.748611	0.054048	0.557325
C277	C	0.962247	0.442080	0.864517
C278	C	0.822906	0.058953	0.627211
C279	C	0.800038	0.301252	0.872923
C280	C	0.925157	0.195651	0.612179
C281	C	0.772720	0.263300	0.834839
C282	C	0.903169	0.236194	0.571319
C283	C	0.793865	0.248033	0.775049
C284	C	0.935398	0.259431	0.524895
C285	C	0.980490	0.043425	0.730542
C286	C	0.859635	0.465900	0.991082
C287	C	0.766166	0.208201	0.733422
C288	C	0.915175	0.304883	0.986575
H201	H	0.609085	0.009008	0.732992
H202	H	0.751800	0.000826	0.975559
H203	H	0.526803	0.493959	0.838511
H204	H	0.648384	0.499503	0.578767
H205	H	0.612166	0.227999	0.743051
H206	H	0.513638	0.256070	0.980676
H207	H	0.543485	0.177849	0.547686
H208	H	0.584854	0.428717	0.798247
H209	H	0.708118	0.067721	0.546148
H210	H	0.606699	0.068453	0.647321
H211	H	0.525543	0.335481	0.910608
H212	H	0.735867	0.246367	0.852594
H213	H	0.601494	0.256801	0.568870
H214	H	0.883628	0.493758	0.715616
H215	H	0.501441	0.495068	0.963596
H216	H	0.763952	0.008082	0.831724
H217	H	0.891902	0.011752	0.602955
H218	H	0.861756	0.259001	0.711890
H219	H	0.755702	0.249861	0.977616
H220	H	0.779313	0.173407	0.551438
H221	H	0.983490	0.425138	0.906292
H222	H	0.784065	0.314638	0.918874
H223	H	0.975033	0.259393	0.862470
H224	H	0.862710	0.250366	0.579799
H225	H	0.727222	0.386593	0.920590
H226	H	0.777972	0.434049	0.912295
H227	H	0.938354	0.092356	0.564730
H228	H	0.931420	0.040606	0.506250
H229	H	0.687577	0.334855	0.815615
H230	H	0.685971	0.279375	0.762701
H231	H	0.636650	0.144418	0.675575
H232	H	0.587842	0.191673	0.655371
H233	H	0.815871	0.401582	0.819725
H234	H	0.812190	0.444198	0.752034
H235	H	0.823978	0.100324	0.712446
H236	H	0.886703	0.071252	0.689518
H237	H	0.940454	0.344305	0.817310
H238	H	0.936824	0.306154	0.746101
H239	H	0.918864	0.158710	0.700199
H240	H	0.858122	0.186147	0.669920
N81	N	0.657624	0.423702	0.846651
N82	N	0.535555	0.072125	0.593987
N83	N	0.592239	0.325188	0.854591
N84	N	0.706990	0.173240	0.597571
N85	N	0.912087	0.424229	0.853720
N86	N	0.771846	0.075189	0.610794
N87	N	0.846885	0.323207	0.856093
N88	N	0.975452	0.174778	0.602606
N89	N	0.741432	0.419092	0.895675
N90	N	0.955391	0.066502	0.533072
N91	N	0.666208	0.306585	0.790654
N92	N	0.624101	0.174971	0.645545
N93	N	0.833762	0.428476	0.789949
N94	N	0.845703	0.077511	0.681519
N95	N	0.918112	0.322800	0.784567
N96	N	0.898232	0.177262	0.662626
Ni21	Ni	0.627976	0.375814	0.913638
Ni22	Ni	0.736387	0.128541	0.666440
Ni23	Ni	0.881478	0.375054	0.918287
Ni24	Ni	0.507236	0.118261	0.661934
O81	O	0.536017	0.171704	0.716418
O82	O	0.689377	0.325501	0.934757
O83	O	0.675717	0.082508	0.694347
O84	O	0.569430	0.425169	0.932544
O85	O	0.717059	0.197817	0.737912
O86	O	0.614018	0.326145	0.986028
O87	O	0.528025	0.060587	0.734138
O88	O	0.647107	0.431891	0.981236
O89	O	0.793126	0.181479	0.690702
O90	O	0.943045	0.328367	0.942643
O91	O	0.949850	0.067425	0.687240
O92	O	0.835663	0.430378	0.954485
O93	O	0.963214	0.180963	0.776973
O94	O	0.868357	0.324677	0.993497
O95	O	0.751330	0.083410	0.747901
O96	O	0.909415	0.469909	0.993521
C289	C	0.638189	0.991877	0.266804
C290	C	0.526780	0.510715	0.002658
C291	C	0.688739	0.514863	0.277331
C292	C	0.578153	0.992344	0.015089
C293	C	0.724213	0.991723	0.322034
C294	C	0.608361	0.513660	0.066776
C295	C	0.590063	0.751074	0.278240
C296	C	0.726942	0.735410	0.012248
C297	C	0.616548	0.794884	0.308200
C298	C	0.740305	0.692592	0.053033
C299	C	0.624343	0.946695	0.303001
C300	C	0.505669	0.550660	0.043497
C301	C	0.708168	0.945018	0.355486
C302	C	0.585004	0.553087	0.105045
C303	C	0.542731	0.811748	0.372200
C304	C	0.656967	0.695585	0.102375
C305	C	0.514443	0.768703	0.344855
C306	C	0.641000	0.739339	0.063226
C307	C	0.538502	0.738683	0.296318
C308	C	0.676756	0.759247	0.018687
C309	C	0.705358	0.561624	0.240119
C310	C	0.599115	0.949188	0.475587
C311	C	0.509469	0.694419	0.263060
C312	C	0.660078	0.804822	0.479305
C313	C	0.907421	0.981450	0.257887
C314	C	0.774037	0.516860	0.017083
C315	C	0.958445	0.500975	0.271408
C316	C	0.827001	0.502251	0.031921
C317	C	0.986717	0.980576	0.325535
C318	C	0.851529	0.522988	0.087598
C319	C	0.842454	0.769470	0.257053
C320	C	0.987067	0.739223	0.016377
C321	C	0.869376	0.805503	0.299537
C322	C	0.504565	0.696169	0.054954
C323	C	0.884256	0.944306	0.300774
C324	C	0.748611	0.554048	0.057325
C325	C	0.962247	0.942080	0.364517
C326	C	0.822906	0.558953	0.127211
C327	C	0.800038	0.801252	0.372922
C328	C	0.925157	0.695650	0.112180
C329	C	0.772720	0.763300	0.334840
C330	C	0.903169	0.736193	0.071319
C331	C	0.793865	0.748033	0.275049
C332	C	0.935398	0.759431	0.024895
C333	C	0.980490	0.543426	0.230542
C334	C	0.859635	0.965900	0.491082
C335	C	0.766166	0.708201	0.233423
C336	C	0.915175	0.804882	0.486575
H241	H	0.609085	0.509008	0.232992
H242	H	0.751800	0.500826	0.475559
H243	H	0.526803	0.993959	0.338511
H244	H	0.648384	0.999503	0.078767
H245	H	0.612166	0.728000	0.243052
H246	H	0.513638	0.756070	0.480677
H247	H	0.543485	0.677849	0.047686
H248	H	0.584854	0.928717	0.298247
H249	H	0.708118	0.567721	0.046148
H250	H	0.606699	0.568453	0.147321
H251	H	0.525543	0.835481	0.410608
H252	H	0.735867	0.746367	0.352594
H253	H	0.601494	0.756801	0.068870
H254	H	0.883628	0.993758	0.215616
H255	H	0.501441	0.995068	0.463595
H256	H	0.763952	0.508082	0.331724
H257	H	0.891902	0.511752	0.102955
H258	H	0.861756	0.759001	0.211891
H259	H	0.755702	0.749861	0.477616
H260	H	0.779313	0.673407	0.051438
H261	H	0.983490	0.925138	0.406292
H262	H	0.784065	0.814639	0.418874
H263	H	0.975033	0.759393	0.362470
H264	H	0.862710	0.750366	0.079799
H265	H	0.727222	0.886594	0.420590
H266	H	0.777972	0.934049	0.412295
H267	H	0.938354	0.592356	0.064730
H268	H	0.931420	0.540605	0.006250
H269	H	0.687577	0.834855	0.315615
H270	H	0.685971	0.779375	0.262701
H271	H	0.636650	0.644417	0.175575
H272	H	0.587842	0.691674	0.155371
H273	H	0.815871	0.901582	0.319725
H274	H	0.812190	0.944198	0.252034
H275	H	0.823978	0.600324	0.212446
H276	H	0.886703	0.571252	0.189518
H277	H	0.940454	0.844305	0.317310
H278	H	0.936824	0.806153	0.246100
H279	H	0.918864	0.658710	0.200200
H280	H	0.858122	0.686147	0.169920
N97	N	0.657624	0.923702	0.346651
N98	N	0.535555	0.572125	0.093987
N99	N	0.592239	0.825188	0.354591
N100	N	0.706990	0.673240	0.097571
N101	N	0.912087	0.924229	0.353720
N102	N	0.771846	0.575188	0.110794
N103	N	0.846885	0.823206	0.356093
N104	N	0.975452	0.674778	0.102606
N105	N	0.741432	0.919091	0.395675
N106	N	0.955391	0.566501	0.033071
N107	N	0.666208	0.806585	0.290654
N108	N	0.624101	0.674971	0.145545
N109	N	0.833762	0.928476	0.289949
N110	N	0.845703	0.577511	0.181519
N111	N	0.918112	0.822800	0.284567
N112	N	0.898232	0.677262	0.162626
Ni25	Ni	0.627976	0.875814	0.413638
Ni26	Ni	0.736387	0.628541	0.166440
Ni27	Ni	0.881478	0.875054	0.418287
Ni28	Ni	0.507236	0.618261	0.161934
O97	O	0.536017	0.671704	0.216418
O98	O	0.689377	0.825501	0.434757
O99	O	0.675717	0.582508	0.194347
O100	O	0.569430	0.925169	0.432544
O101	O	0.717059	0.697817	0.237912
O102	O	0.614018	0.826145	0.486028
O103	O	0.528025	0.560587	0.234138
O104	O	0.647107	0.931891	0.481236
O105	O	0.793126	0.681479	0.190702
O106	O	0.943045	0.828367	0.442642
O107	O	0.949850	0.567425	0.187240
O108	O	0.835663	0.930378	0.454485
O109	O	0.963214	0.680963	0.276973
O110	O	0.868357	0.824677	0.493497
O111	O	0.751330	0.583411	0.247901
O112	O	0.909415	0.969909	0.493520
C337	C	0.638189	0.991877	0.766803
C338	C	0.526780	0.510715	0.502658
C339	C	0.688739	0.514863	0.777331
C340	C	0.578153	0.992344	0.515089
C341	C	0.724213	0.991723	0.822034
C342	C	0.608361	0.513660	0.566775
C343	C	0.590063	0.751074	0.778240
C344	C	0.726942	0.735410	0.512248
C345	C	0.616548	0.794884	0.808200
C346	C	0.740305	0.692592	0.553033
C347	C	0.624343	0.946695	0.803001
C348	C	0.505669	0.550660	0.543497
C349	C	0.708168	0.945018	0.855486
C350	C	0.585004	0.553087	0.605046
C351	C	0.542731	0.811748	0.872200
C352	C	0.656967	0.695585	0.602375
C353	C	0.514443	0.768703	0.844855
C354	C	0.641000	0.739339	0.563226
C355	C	0.538502	0.738683	0.796318
C356	C	0.676756	0.759247	0.518687
C357	C	0.705358	0.561624	0.740119
C358	C	0.599115	0.949188	0.975587
C359	C	0.509469	0.694419	0.763060
C360	C	0.660078	0.804822	0.979305
C361	C	0.907421	0.981450	0.757887
C362	C	0.774037	0.516860	0.517083
C363	C	0.958445	0.500975	0.771408
C364	C	0.827001	0.502251	0.531921
C365	C	0.986717	0.980576	0.825535
C366	C	0.851529	0.522988	0.587599
C367	C	0.842454	0.769470	0.757053
C368	C	0.987067	0.739223	0.516378
C369	C	0.869376	0.805503	0.799537
C370	C	0.504565	0.696169	0.554953
C371	C	0.884256	0.944306	0.800774
C372	C	0.748611	0.554048	0.557325
C373	C	0.962247	0.942080	0.864517
C374	C	0.822906	0.558953	0.627211
C375	C	0.800038	0.801252	0.872923
C376	C	0.925157	0.695650	0.612179
C377	C	0.772720	0.763300	0.834839
C378	C	0.903169	0.736193	0.571319
C379	C	0.793865	0.748033	0.775049
C380	C	0.935398	0.759431	0.524895
C381	C	0.980490	0.543426	0.730542
C382	C	0.859635	0.965900	0.991082
C383	C	0.766166	0.708201	0.733422
C384	C	0.915175	0.804882	0.986575
H281	H	0.609085	0.509008	0.732992
H282	H	0.751800	0.500826	0.975559
H283	H	0.526803	0.993959	0.838511
H284	H	0.648384	0.999503	0.578767
H285	H	0.612166	0.728000	0.743051
H286	H	0.513638	0.756070	0.980676
H287	H	0.543485	0.677849	0.547686
H288	H	0.584854	0.928717	0.798247
H289	H	0.708118	0.567721	0.546148
H290	H	0.606699	0.568453	0.647321
H291	H	0.525543	0.835481	0.910608
H292	H	0.735867	0.746367	0.852594
H293	H	0.601494	0.756801	0.568870
H294	H	0.883628	0.993758	0.715616
H295	H	0.501441	0.995068	0.963596
H296	H	0.763952	0.508082	0.831724
H297	H	0.891902	0.511752	0.602955
H298	H	0.861756	0.759001	0.711890
H299	H	0.755702	0.749861	0.977616
H300	H	0.779313	0.673407	0.551438
H301	H	0.983490	0.925138	0.906292
H302	H	0.784065	0.814639	0.918874
H303	H	0.975033	0.759393	0.862470
H304	H	0.862710	0.750366	0.579799
H305	H	0.727222	0.886594	0.920590
H306	H	0.777972	0.934049	0.912295
H307	H	0.938354	0.592356	0.564730
H308	H	0.931420	0.540605	0.506250
H309	H	0.687577	0.834855	0.815615
H310	H	0.685971	0.779375	0.762701
H311	H	0.636650	0.644417	0.675575
H312	H	0.587842	0.691674	0.655371
H313	H	0.815871	0.901582	0.819725
H314	H	0.812190	0.944198	0.752034
H315	H	0.823978	0.600324	0.712446
H316	H	0.886703	0.571252	0.689518
H317	H	0.940454	0.844305	0.817310
H318	H	0.936824	0.806153	0.746101
H319	H	0.918864	0.658710	0.700199
H320	H	0.858122	0.686147	0.669920
N113	N	0.657624	0.923702	0.846651
N114	N	0.535555	0.572125	0.593987
N115	N	0.592239	0.825188	0.854591
N116	N	0.706990	0.673240	0.597571
N117	N	0.912087	0.924229	0.853720
N118	N	0.771846	0.575188	0.610794
N119	N	0.846885	0.823206	0.856093
N120	N	0.975452	0.674778	0.602606
N121	N	0.741432	0.919091	0.895675
N122	N	0.955391	0.566501	0.533072
N123	N	0.666208	0.806585	0.790654
N124	N	0.624101	0.674971	0.645545
N125	N	0.833762	0.928476	0.789949
N126	N	0.845703	0.577511	0.681519
N127	N	0.918112	0.822800	0.784567
N128	N	0.898232	0.677262	0.662626
Ni29	Ni	0.627976	0.875814	0.913638
Ni30	Ni	0.736387	0.628541	0.666440
Ni31	Ni	0.881478	0.875054	0.918287
Ni32	Ni	0.507236	0.618261	0.661934
O113	O	0.536017	0.671704	0.716418
O114	O	0.689377	0.825501	0.934757
O115	O	0.675717	0.582508	0.694347
O116	O	0.569430	0.925169	0.932544
O117	O	0.717059	0.697817	0.737912
O118	O	0.614018	0.826145	0.986028
O119	O	0.528025	0.560587	0.734138
O120	O	0.647107	0.931891	0.981236
O121	O	0.793126	0.681479	0.690702
O122	O	0.943045	0.828367	0.942643
O123	O	0.949850	0.567425	0.687240
O124	O	0.835663	0.930378	0.954485
O125	O	0.963214	0.680963	0.776973
O126	O	0.868357	0.824677	0.993497
O127	O	0.751330	0.583411	0.747901
O128	O	0.909415	0.969909	0.993521

loop_
_geom_bond_atom_site_label_1
_geom_bond_atom_site_label_2
_geom_bond_distance
C1	C11	0.05953
C1	C99	0.05652
C1	H81	0.04779
C2	C12	0.06090
C3	C21	0.06203
C4	C98	0.05596
C4	C102	0.06355
C5	C13	0.05965
C5	C99	0.06158
C5	H96	0.04405
C6	C14	0.05970
C7	C9	0.05932
C7	C19	0.05603
C7	H5	0.04753
C8	C10	0.06062
C8	C20	0.05593
C9	N3	0.06051
C9	N11	0.05395
C10	H20	0.04350
C10	N4	0.05889
C11	H8	0.04365
C11	N1	0.05951
C12	N2	0.06248
C13	N1	0.05556
C13	N9	0.05826
C14	H10	0.04994
C14	N2	0.05413
C15	C17	0.05832
C15	H11	0.04831
C15	N3	0.05424
C16	C18	0.06084
C16	N4	0.05500
C16	N12	0.05804
C17	C19	0.06193
C18	C20	0.06048
C18	H13	0.04356
C19	C23	0.06252
C21	O3	0.05839
C21	O15	0.05146
C22	O4	0.05754
C22	O8	0.05133
C22	C52	0.06215
C23	O1	0.05828
C24	O2	0.05719
C24	O6	0.05120
C24	C68	0.06250
C25	C35	0.06128
C25	H14	0.05004
C25	C123	0.05628
C26	C28	0.05691
C26	C36	0.06041
C27	C45	0.06291
C28	C30	0.06428
C29	C37	0.06000
C29	C123	0.06438
C29	H163	0.04421
C30	C38	0.06068
C30	H17	0.04463
C31	C33	0.06187
C31	C43	0.05607
C31	H18	0.05022
C32	C44	0.05613
C32	C226	0.06040
C33	N7	0.06339
C33	N15	0.05384
C34	H7	0.04363
C35	N5	0.06310
C35	N13	0.05401
C36	H9	0.04418
C36	N6	0.06201
C37	H21	0.04983
C37	N5	0.05433
C38	N6	0.05604
C38	N14	0.06175
C39	C41	0.06031
C39	H22	0.05046
C39	N7	0.05440
C40	C42	0.06162
C40	N8	0.05529
C40	N16	0.06007
C41	C43	0.06523
C41	H12	0.04427
C42	C44	0.06111
C42	H24	0.04370
C43	C47	0.06393
C45	O11	0.05822
C45	O71	0.05067
C46	O12	0.05635
C46	O16	0.05000
C46	C172	0.06367
C47	O5	0.05039
C47	O9	0.05715
C48	O10	0.05708
C48	O14	0.05130
C48	C92	0.06280
H2	C74	0.04976
H4	C102	0.04411
H15	C146	0.04912
H19	C56	0.04728
H23	C209	0.04416
H25	N9	0.04334
H26	N9	0.04284
H27	N10	0.04428
H28	N10	0.04432
H29	N11	0.04335
H30	N11	0.04373
H31	N12	0.04464
H32	N12	0.04111
H33	N13	0.04393
H34	N13	0.04637
H35	N14	0.04415
H36	N14	0.04224
H37	N15	0.04510
H38	N15	0.04590
H39	N16	0.04671
H40	N16	0.04173
N1	Ni1	0.08752
N2	Ni4	0.08688
N3	Ni1	0.08560
N4	Ni2	0.08721
N5	Ni3	0.08674
N6	Ni2	0.08485
N7	Ni3	0.08805
N8	C226	0.05980
N8	Ni20	0.08789
N10	C204	0.05374
Ni1	O2	0.08214
Ni1	O4	0.07887
Ni1	O6	0.08889
Ni1	O8	0.08989
Ni2	O3	0.08111
Ni2	O5	0.10140
Ni2	O9	0.08130
Ni2	O15	0.09432
Ni3	O10	0.08102
Ni3	O12	0.08044
Ni3	O14	0.09147
Ni4	O1	0.08157
Ni4	O7	0.09472
O11	Ni20	0.08073
O13	C215	0.05014
O16	H148	0.07513
C49	C59	0.05953
C49	C147	0.05652
C49	H121	0.04779
C50	C60	0.06090
C51	C69	0.06203
C52	C146	0.05596
C52	C150	0.06355
C53	C61	0.05965
C53	C147	0.06158
C53	H136	0.04405
C54	C62	0.05970
C55	C57	0.05932
C55	C67	0.05603
C55	H45	0.04753
C56	C58	0.06062
C56	C68	0.05593
C57	N19	0.06051
C57	N27	0.05395
C58	H60	0.04350
C58	N20	0.05889
C59	H48	0.04365
C59	N17	0.05951
C60	N18	0.06248
C61	N17	0.05556
C61	N25	0.05826
C62	H50	0.04994
C62	N18	0.05413
C63	C65	0.05832
C63	H51	0.04831
C63	N19	0.05424
C64	C66	0.06084
C64	N20	0.05500
C64	N28	0.05804
C65	C67	0.06193
C66	C68	0.06048
C66	H53	0.04356
C67	C71	0.06252
C69	O19	0.05839
C69	O31	0.05146
C70	O20	0.05754
C70	O24	0.05133
C71	O17	0.05828
C72	O18	0.05719
C72	O22	0.05120
C73	C83	0.06128
C73	H54	0.05004
C73	C171	0.05628
C74	C76	0.05691
C74	C84	0.06041
C75	C93	0.06291
C76	C78	0.06428
C77	C85	0.06000
C77	C171	0.06438
C77	H203	0.04421
C78	C86	0.06068
C78	H57	0.04463
C79	C81	0.06187
C79	C91	0.05607
C79	H58	0.05022
C80	C92	0.05613
C80	H166	0.04759
C80	C274	0.06040
C81	N23	0.06339
C81	N31	0.05384
C82	H47	0.04363
C83	N21	0.06310
C83	N29	0.05401
C84	H49	0.04418
C84	N22	0.06201
C85	H61	0.04983
C85	N21	0.05433
C86	N22	0.05604
C86	N30	0.06175
C87	C89	0.06031
C87	H62	0.05046
C87	N23	0.05440
C88	C90	0.06162
C88	N24	0.05529
C88	N32	0.06007
C89	C91	0.06523
C89	H52	0.04427
C90	C92	0.06111
C90	H64	0.04370
C91	C95	0.06393
C93	O27	0.05822
C93	O87	0.05067
C94	O28	0.05635
C94	O32	0.05000
C95	O21	0.05039
C95	O25	0.05715
C96	O26	0.05708
C96	O30	0.05130
H44	C150	0.04411
H63	C257	0.04416
H65	N25	0.04334
H66	N25	0.04284
H67	N26	0.04428
H68	N26	0.04432
H69	N27	0.04335
H70	N27	0.04373
H71	N28	0.04464
H72	N28	0.04111
H73	N29	0.04393
H74	N29	0.04637
H75	N30	0.04415
H76	N30	0.04224
H77	N31	0.04510
H78	N31	0.04590
H79	N32	0.04671
H80	N32	0.04173
N17	Ni5	0.08752
N18	Ni8	0.08688
N19	Ni5	0.08560
N20	Ni6	0.08721
N21	Ni7	0.08674
N22	Ni6	0.08485
N23	Ni7	0.08805
N24	C274	0.05980
N24	Ni24	0.08789
N26	C252	0.05374
Ni5	O18	0.08214
Ni5	O20	0.07887
Ni5	O22	0.08889
Ni5	O24	0.08989
Ni6	O19	0.08111
Ni6	O21	0.10140
Ni6	O25	0.08130
Ni6	O31	0.09432
Ni7	O26	0.08102
Ni7	O28	0.08044
Ni7	O30	0.09147
Ni8	O17	0.08157
Ni8	O23	0.09472
O27	Ni24	0.08073
O29	C263	0.05014
C97	C107	0.05953
C98	C108	0.06090
C99	C117	0.06203
C101	C109	0.05965
C102	C110	0.05970
C103	C105	0.05932
C103	C115	0.05603
C103	H85	0.04753
C104	C106	0.06062
C104	C116	0.05593
C105	N35	0.06051
C105	N43	0.05395
C106	H100	0.04350
C106	N36	0.05889
C107	H88	0.04365
C107	N33	0.05951
C108	N34	0.06248
C109	N33	0.05556
C109	N41	0.05826
C110	H90	0.04994
C110	N34	0.05413
C111	C113	0.05832
C111	H91	0.04831
C111	N35	0.05424
C112	C114	0.06084
C112	N36	0.05500
C112	N44	0.05804
C113	C115	0.06193
C114	C116	0.06048
C114	H93	0.04356
C115	C119	0.06252
C117	O35	0.05839
C117	O47	0.05146
C118	O36	0.05754
C118	O40	0.05133
C118	C148	0.06215
C119	O33	0.05828
C120	O34	0.05719
C120	O38	0.05120
C120	C164	0.06250
C121	C131	0.06128
C121	H94	0.05004
C122	C124	0.05691
C122	C132	0.06041
C123	C141	0.06291
C124	C126	0.06428
C125	C133	0.06000
C125	H243	0.04421
C126	C134	0.06068
C126	H97	0.04463
C127	C129	0.06187
C127	C139	0.05607
C127	H98	0.05022
C128	C140	0.05613
C128	C322	0.06040
C129	N39	0.06339
C129	N47	0.05384
C130	H87	0.04363
C131	N37	0.06310
C131	N45	0.05401
C132	H89	0.04418
C132	N38	0.06201
C133	H101	0.04983
C133	N37	0.05433
C134	N38	0.05604
C134	N46	0.06175
C135	C137	0.06031
C135	H102	0.05046
C135	N39	0.05440
C136	C138	0.06162
C136	N40	0.05529
C136	N48	0.06007
C137	C139	0.06523
C137	H92	0.04427
C138	C140	0.06111
C138	H104	0.04370
C139	C143	0.06393
C141	O43	0.05822
C141	O103	0.05067
C142	O44	0.05635
C142	O48	0.05000
C143	O37	0.05039
C143	O41	0.05715
C144	O42	0.05708
C144	O46	0.05130
C144	C188	0.06280
H82	C170	0.04976
H99	C152	0.04728
H103	C305	0.04416
H105	N41	0.04334
H106	N41	0.04284
H107	N42	0.04428
H108	N42	0.04432
H109	N43	0.04335
H110	N43	0.04373
H111	N44	0.04464
H112	N44	0.04111
H113	N45	0.04393
H114	N45	0.04637
H115	N46	0.04415
H116	N46	0.04224
H117	N47	0.04510
H118	N47	0.04590
H119	N48	0.04671
H120	N48	0.04173
N33	Ni9	0.08752
N34	Ni12	0.08688
N35	Ni9	0.08560
N36	Ni10	0.08721
N37	Ni11	0.08674
N38	Ni10	0.08485
N39	Ni11	0.08805
N40	C322	0.05980
N40	Ni28	0.08789
N42	C300	0.05374
Ni9	O34	0.08214
Ni9	O36	0.07887
Ni9	O38	0.08889
Ni9	O40	0.08989
Ni10	O35	0.08111
Ni10	O37	0.10140
Ni10	O41	0.08130
Ni10	O47	0.09432
Ni11	O42	0.08102
Ni11	O44	0.08044
Ni11	O46	0.09147
Ni12	O33	0.08157
Ni12	O39	0.09472
O43	Ni28	0.08073
O45	C311	0.05014
C145	C155	0.05953
C146	C156	0.06090
C147	C165	0.06203
C149	C157	0.05965
C150	C158	0.05970
C151	C153	0.05932
C151	C163	0.05603
C151	H125	0.04753
C152	C154	0.06062
C152	C164	0.05593
C153	N51	0.06051
C153	N59	0.05395
C154	H140	0.04350
C154	N52	0.05889
C155	H128	0.04365
C155	N49	0.05951
C156	N50	0.06248
C157	N49	0.05556
C157	N57	0.05826
C158	H130	0.04994
C158	N50	0.05413
C159	C161	0.05832
C159	H131	0.04831
C159	N51	0.05424
C160	C162	0.06084
C160	N52	0.05500
C160	N60	0.05804
C161	C163	0.06193
C162	C164	0.06048
C162	H133	0.04356
C163	C167	0.06252
C165	O51	0.05839
C165	O63	0.05146
C166	O52	0.05754
C166	O56	0.05133
C167	O49	0.05828
C168	O50	0.05719
C168	O54	0.05120
C169	C179	0.06128
C169	H134	0.05004
C170	C172	0.05691
C170	C180	0.06041
C171	C189	0.06291
C172	C174	0.06428
C173	C181	0.06000
C173	H283	0.04421
C174	C182	0.06068
C174	H137	0.04463
C175	C177	0.06187
C175	C187	0.05607
C175	H138	0.05022
C176	C188	0.05613
C176	H246	0.04759
C176	C370	0.06040
C177	N55	0.06339
C177	N63	0.05384
C178	H127	0.04363
C179	N53	0.06310
C179	N61	0.05401
C180	H129	0.04418
C180	N54	0.06201
C181	H141	0.04983
C181	N53	0.05433
C182	N54	0.05604
C182	N62	0.06175
C183	C185	0.06031
C183	H142	0.05046
C183	N55	0.05440
C184	C186	0.06162
C184	N56	0.05529
C184	N64	0.06007
C185	C187	0.06523
C185	H132	0.04427
C186	C188	0.06111
C186	H144	0.04370
C187	C191	0.06393
C189	O59	0.05822
C189	O119	0.05067
C190	O60	0.05635
C190	O64	0.05000
C191	O53	0.05039
C191	O57	0.05715
C192	O58	0.05708
C192	O62	0.05130
H143	C353	0.04416
H145	N57	0.04334
H146	N57	0.04284
H147	N58	0.04428
H148	N58	0.04432
H149	N59	0.04335
H150	N59	0.04373
H151	N60	0.04464
H152	N60	0.04111
H153	N61	0.04393
H154	N61	0.04637
H155	N62	0.04415
H156	N62	0.04224
H157	N63	0.04510
H158	N63	0.04590
H159	N64	0.04671
H160	N64	0.04173
N49	Ni13	0.08752
N50	Ni16	0.08688
N51	Ni13	0.08560
N52	Ni14	0.08721
N53	Ni15	0.08674
N54	Ni14	0.08485
N55	Ni15	0.08805
N56	C370	0.05980
N56	Ni32	0.08789
N58	C348	0.05374
Ni13	O50	0.08214
Ni13	O52	0.07887
Ni13	O54	0.08889
Ni13	O56	0.08989
Ni14	O51	0.08111
Ni14	O53	0.10140
Ni14	O57	0.08130
Ni14	O63	0.09432
Ni15	O58	0.08102
Ni15	O60	0.08044
Ni15	O62	0.09147
Ni16	O49	0.08157
Ni16	O55	0.09472
O59	Ni32	0.08073
O61	C359	0.05014
C193	C203	0.05953
C193	C291	0.05652
C193	H241	0.04779
C194	C204	0.06090
C195	C213	0.06203
C196	C290	0.05596
C196	C294	0.06355
C197	C205	0.05965
C197	C291	0.06158
C197	H256	0.04405
C198	C206	0.05970
C199	C201	0.05932
C199	C211	0.05603
C199	H165	0.04753
C200	C202	0.06062
C200	C212	0.05593
C201	N67	0.06051
C201	N75	0.05395
C202	H180	0.04350
C202	N68	0.05889
C203	H168	0.04365
C203	N65	0.05951
C204	N66	0.06248
C205	N65	0.05556
C205	N73	0.05826
C206	H170	0.04994
C206	N66	0.05413
C207	C209	0.05832
C207	H171	0.04831
C207	N67	0.05424
C208	C210	0.06084
C208	N68	0.05500
C208	N76	0.05804
C209	C211	0.06193
C210	C212	0.06048
C210	H173	0.04356
C211	C215	0.06252
C213	O67	0.05839
C213	O79	0.05146
C214	O68	0.05754
C214	O72	0.05133
C214	C244	0.06215
C215	O65	0.05828
C216	O66	0.05719
C216	O70	0.05120
C216	C260	0.06250
C217	C227	0.06128
C217	H174	0.05004
C217	C315	0.05628
C218	C220	0.05691
C218	C228	0.06041
C219	C237	0.06291
C220	C222	0.06428
C221	C229	0.06000
C221	C315	0.06438
C222	C230	0.06068
C222	H177	0.04463
C223	C225	0.06187
C223	C235	0.05607
C223	H178	0.05022
C224	C236	0.05613
C225	N71	0.06339
C225	N79	0.05384
C226	H167	0.04363
C227	N69	0.06310
C227	N77	0.05401
C228	H169	0.04418
C228	N70	0.06201
C229	H181	0.04983
C229	N69	0.05433
C230	N70	0.05604
C230	N78	0.06175
C231	C233	0.06031
C231	H182	0.05046
C231	N71	0.05440
C232	C234	0.06162
C232	N72	0.05529
C232	N80	0.06007
C233	C235	0.06523
C233	H172	0.04427
C234	C236	0.06111
C234	H184	0.04370
C235	C239	0.06393
C237	O75	0.05822
C238	O76	0.05635
C238	O80	0.05000
C238	C364	0.06367
C239	O69	0.05039
C239	O73	0.05715
C240	O74	0.05708
C240	O78	0.05130
C240	C284	0.06280
H162	C266	0.04976
H164	C294	0.04411
H175	C338	0.04912
H179	C248	0.04728
H185	N73	0.04334
H186	N73	0.04284
H187	N74	0.04428
H188	N74	0.04432
H189	N75	0.04335
H190	N75	0.04373
H191	N76	0.04464
H192	N76	0.04111
H193	N77	0.04393
H194	N77	0.04637
H195	N78	0.04415
H196	N78	0.04224
H197	N79	0.04510
H198	N79	0.04590
H199	N80	0.04671
H200	N80	0.04173
N65	Ni17	0.08752
N66	Ni20	0.08688
N67	Ni17	0.08560
N68	Ni18	0.08721
N69	Ni19	0.08674
N70	Ni18	0.08485
N71	Ni19	0.08805
Ni17	O66	0.08214
Ni17	O68	0.07887
Ni17	O70	0.08889
Ni17	O72	0.08989
Ni18	O67	0.08111
Ni18	O69	0.10140
Ni18	O73	0.08130
Ni18	O79	0.09432
Ni19	O74	0.08102
Ni19	O76	0.08044
Ni19	O78	0.09147
Ni20	O65	0.08157
Ni20	O71	0.09472
O80	H308	0.07513
C241	C251	0.05953
C241	C339	0.05652
C241	H281	0.04779
C242	C252	0.06090
C243	C261	0.06203
C244	C338	0.05596
C244	C342	0.06355
C245	C253	0.05965
C245	C339	0.06158
C245	H296	0.04405
C246	C254	0.05970
C247	C249	0.05932
C247	C259	0.05603
C247	H205	0.04753
C248	C250	0.06062
C248	C260	0.05593
C249	N83	0.06051
C249	N91	0.05395
C250	H220	0.04350
C250	N84	0.05889
C251	H208	0.04365
C251	N81	0.05951
C252	N82	0.06248
C253	N81	0.05556
C253	N89	0.05826
C254	H210	0.04994
C254	N82	0.05413
C255	C257	0.05832
C255	H211	0.04831
C255	N83	0.05424
C256	C258	0.06084
C256	N84	0.05500
C256	N92	0.05804
C257	C259	0.06193
C258	C260	0.06048
C258	H213	0.04356
C259	C263	0.06252
C261	O83	0.05839
C261	O95	0.05146
C262	O84	0.05754
C262	O88	0.05133
C263	O81	0.05828
C264	O82	0.05719
C264	O86	0.05120
C265	C275	0.06128
C265	H214	0.05004
C265	C363	0.05628
C266	C268	0.05691
C266	C276	0.06041
C267	C285	0.06291
C268	C270	0.06428
C269	C277	0.06000
C269	C363	0.06438
C270	C278	0.06068
C270	H217	0.04463
C271	C273	0.06187
C271	C283	0.05607
C271	H218	0.05022
C272	C284	0.05613
C273	N87	0.06339
C273	N95	0.05384
C274	H207	0.04363
C275	N85	0.06310
C275	N93	0.05401
C276	H209	0.04418
C276	N86	0.06201
C277	H221	0.04983
C277	N85	0.05433
C278	N86	0.05604
C278	N94	0.06175
C279	C281	0.06031
C279	H222	0.05046
C279	N87	0.05440
C280	C282	0.06162
C280	N88	0.05529
C280	N96	0.06007
C281	C283	0.06523
C281	H212	0.04427
C282	C284	0.06111
C282	H224	0.04370
C283	C287	0.06393
C285	O91	0.05822
C286	O92	0.05635
C286	O96	0.05000
C287	O85	0.05039
C287	O89	0.05715
C288	O90	0.05708
C288	O94	0.05130
H204	C342	0.04411
H225	N89	0.04334
H226	N89	0.04284
H227	N90	0.04428
H228	N90	0.04432
H229	N91	0.04335
H230	N91	0.04373
H231	N92	0.04464
H232	N92	0.04111
H233	N93	0.04393
H234	N93	0.04637
H235	N94	0.04415
H236	N94	0.04224
H237	N95	0.04510
H238	N95	0.04590
H239	N96	0.04671
H240	N96	0.04173
N81	Ni21	0.08752
N82	Ni24	0.08688
N83	Ni21	0.08560
N84	Ni22	0.08721
N85	Ni23	0.08674
N86	Ni22	0.08485
N87	Ni23	0.08805
Ni21	O82	0.08214
Ni21	O84	0.07887
Ni21	O86	0.08889
Ni21	O88	0.08989
Ni22	O83	0.08111
Ni22	O85	0.10140
Ni22	O89	0.08130
Ni22	O95	0.09432
Ni23	O90	0.08102
Ni23	O92	0.08044
Ni23	O94	0.09147
Ni24	O81	0.08157
Ni24	O87	0.09472
C289	C299	0.05953
C290	C300	0.06090
C291	C309	0.06203
C293	C301	0.05965
C294	C302	0.05970
C295	C297	0.05932
C295	C307	0.05603
C295	H245	0.04753
C296	C298	0.06062
C296	C308	0.05593
C297	N99	0.06051
C297	N107	0.05395
C298	H260	0.04350
C298	N100	0.05889
C299	H248	0.04365
C299	N97	0.05951
C300	N98	0.06248
C301	N97	0.05556
C301	N105	0.05826
C302	H250	0.04994
C302	N98	0.05413
C303	C305	0.05832
C303	H251	0.04831
C303	N99	0.05424
C304	C306	0.06084
C304	N100	0.05500
C304	N108	0.05804
C305	C307	0.06193
C306	C308	0.06048
C306	H253	0.04356
C307	C311	0.06252
C309	O99	0.05839
C309	O111	0.05146
C310	O100	0.05754
C310	O104	0.05133
C310	C340	0.06215
C311	O97	0.05828
C312	O98	0.05719
C312	O102	0.05120
C312	C356	0.06250
C313	C323	0.06128
C313	H254	0.05004
C314	C316	0.05691
C314	C324	0.06041
C315	C333	0.06291
C316	C318	0.06428
C317	C325	0.06000
C318	C326	0.06068
C318	H257	0.04463
C319	C321	0.06187
C319	C331	0.05607
C319	H258	0.05022
C320	C332	0.05613
C321	N103	0.06339
C321	N111	0.05384
C322	H247	0.04363
C323	N101	0.06310
C323	N109	0.05401
C324	H249	0.04418
C324	N102	0.06201
C325	H261	0.04983
C325	N101	0.05433
C326	N102	0.05604
C326	N110	0.06175
C327	C329	0.06031
C327	H262	0.05046
C327	N103	0.05440
C328	C330	0.06162
C328	N104	0.05529
C328	N112	0.06007
C329	C331	0.06523
C329	H252	0.04427
C330	C332	0.06111
C330	H264	0.04370
C331	C335	0.06393
C333	O107	0.05822
C334	O108	0.05635
C334	O112	0.05000
C335	O101	0.05039
C335	O105	0.05715
C336	O106	0.05708
C336	O110	0.05130
C336	C380	0.06280
H242	C362	0.04976
H259	C344	0.04728
H265	N105	0.04334
H266	N105	0.04284
H267	N106	0.04428
H268	N106	0.04432
H269	N107	0.04335
H270	N107	0.04373
H271	N108	0.04464
H272	N108	0.04111
H273	N109	0.04393
H274	N109	0.04637
H275	N110	0.04415
H276	N110	0.04224
H277	N111	0.04510
H278	N111	0.04590
H279	N112	0.04671
H280	N112	0.04173
N97	Ni25	0.08752
N98	Ni28	0.08688
N99	Ni25	0.08560
N100	Ni26	0.08721
N101	Ni27	0.08674
N102	Ni26	0.08485
N103	Ni27	0.08805
Ni25	O98	0.08214
Ni25	O100	0.07887
Ni25	O102	0.08889
Ni25	O104	0.08989
Ni26	O99	0.08111
Ni26	O101	0.10140
Ni26	O105	0.08130
Ni26	O111	0.09432
Ni27	O106	0.08102
Ni27	O108	0.08044
Ni27	O110	0.09147
Ni28	O97	0.08157
Ni28	O103	0.09472
C337	C347	0.05953
C338	C348	0.06090
C339	C357	0.06203
C341	C349	0.05965
C342	C350	0.05970
C343	C345	0.05932
C343	C355	0.05603
C343	H285	0.04753
C344	C346	0.06062
C344	C356	0.05593
C345	N115	0.06051
C345	N123	0.05395
C346	H300	0.04350
C346	N116	0.05889
C347	H288	0.04365
C347	N113	0.05951
C348	N114	0.06248
C349	N113	0.05556
C349	N121	0.05826
C350	H290	0.04994
C350	N114	0.05413
C351	C353	0.05832
C351	H291	0.04831
C351	N115	0.05424
C352	C354	0.06084
C352	N116	0.05500
C352	N124	0.05804
C353	C355	0.06193
C354	C356	0.06048
C354	H293	0.04356
C355	C359	0.06252
C357	O115	0.05839
C357	O127	0.05146
C358	O116	0.05754
C358	O120	0.05133
C359	O113	0.05828
C360	O114	0.05719
C360	O118	0.05120
C361	C371	0.06128
C361	H294	0.05004
C362	C364	0.05691
C362	C372	0.06041
C363	C381	0.06291
C364	C366	0.06428
C365	C373	0.06000
C366	C374	0.06068
C366	H297	0.04463
C367	C369	0.06187
C367	C379	0.05607
C367	H298	0.05022
C368	C380	0.05613
C369	N119	0.06339
C369	N127	0.05384
C370	H287	0.04363
C371	N117	0.06310
C371	N125	0.05401
C372	H289	0.04418
C372	N118	0.06201
C373	H301	0.04983
C373	N117	0.05433
C374	N118	0.05604
C374	N126	0.06175
C375	C377	0.06031
C375	H302	0.05046
C375	N119	0.05440
C376	C378	0.06162
C376	N120	0.05529
C376	N128	0.06007
C377	C379	0.06523
C377	H292	0.04427
C378	C380	0.06111
C378	H304	0.04370
C379	C383	0.06393
C381	O123	0.05822
C382	O124	0.05635
C382	O128	0.05000
C383	O117	0.05039
C383	O121	0.05715
C384	O122	0.05708
C384	O126	0.05130
H305	N121	0.04334
H306	N121	0.04284
H307	N122	0.04428
H308	N122	0.04432
H309	N123	0.04335
H310	N123	0.04373
H311	N124	0.04464
H312	N124	0.04111
H313	N125	0.04393
H314	N125	0.04637
H315	N126	0.04415
H316	N126	0.04224
H317	N127	0.04510
H318	N127	0.04590
H319	N128	0.04671
H320	N128	0.04173
N113	Ni29	0.08752
N114	Ni32	0.08688
N115	Ni29	0.08560
N116	Ni30	0.08721
N117	Ni31	0.08674
N118	Ni30	0.08485
N119	Ni31	0.08805
Ni29	O114	0.08214
Ni29	O116	0.07887
Ni29	O118	0.08889
Ni29	O120	0.08989
Ni30	O115	0.08111
Ni30	O117	0.10140
Ni30	O121	0.08130
Ni30	O127	0.09432
Ni31	O122	0.08102
Ni31	O124	0.08044
Ni31	O126	0.09147
Ni32	O113	0.08157
Ni32	O119	0.09472
