data_NiPyC2_vc-relax_NiPyC2_vc-relax_aligned_O-CH2-CH2-CH3_NiPyC2_vc-relax_aligned_O-CH2-CH2-CH3_NiPyC2_vc-relax_aligned_O-CH2-CH2-CH3_NiPyC2_vc-relax_aligned_O-CH2-CH2-CH3_NiPyC2_vc-relax_aligned_O-CH2-CH2-CH3_NiPyC2_vc-relax_aligned_O-CH2-CH2-CH3_NiPyC2_vc-relax_aligned_O-CH2-CH2-CH3_NiPyC2_vc-relax_aligned_O-CH2-CH2-CH3_PM
_symmetry_space_group_name_H-M	'P1'
_cell_length_a	13.596920
_cell_length_b	10.761410
_cell_length_c	11.188340
_cell_angle_alpha	90.000000
_cell_angle_beta	91.370820
_cell_angle_gamma	90.000000
_symmetry_Int_Tables_number 1

loop_
_symmetry_equiv_pos_as_xyz
'x,y,z'

loop_
_atom_site_label
_atom_site_type_symbol
_atom_site_fract_x
_atom_site_fract_y
_atom_site_fract_z
Ni1	Ni	0.247197	0.753640	0.835964
Ni2	Ni	0.000319	0.245480	0.339573
O1	O	0.111597	0.356377	0.377951
O2	O	0.362148	0.643663	0.875199
O3	O	0.387594	0.132093	0.366528
O4	O	0.135269	0.866605	0.868183
O5	O	0.471199	0.368506	0.466691
O6	O	0.222521	0.628961	0.964342
O7	O	0.027495	0.115997	0.463143
O8	O	0.276884	0.882169	0.960933
N1	N	0.304670	0.859220	0.713966
N2	N	0.058019	0.140503	0.216709
N3	N	0.190138	0.644396	0.716223
N4	N	0.443186	0.356492	0.217779
C1	C	0.291060	0.975012	0.532636
C2	C	0.042181	0.024694	0.035506
H1	H	0.245183	0.011831	0.460177
H2	H	0.495337	0.988400	0.963693
C3	C	0.392226	0.999467	0.540557
C4	C	0.143313	0.999720	0.041690
C5	C	0.449200	0.952237	0.635756
C6	C	0.201469	0.047233	0.135744
H3	H	0.027666	0.970603	0.644986
C7	C	0.203970	0.520841	0.541178
C8	C	0.457280	0.480360	0.042147
C9	C	0.245670	0.597932	0.628523
C10	C	0.498677	0.403347	0.130221
H4	H	0.323324	0.623149	0.630133
H5	H	0.076408	0.378457	0.132091
C11	C	0.249081	0.903609	0.622156
C12	C	0.001383	0.096050	0.125873
H6	H	0.170825	0.881421	0.622089
H7	H	0.423215	0.118160	0.127295
C13	C	0.402384	0.881084	0.721817
C14	C	0.155764	0.118649	0.222607
H8	H	0.442056	0.840512	0.797913
H9	H	0.196516	0.159347	0.297836
C15	C	0.093038	0.619955	0.721873
C16	C	0.346073	0.381359	0.222307
H10	H	0.053780	0.663137	0.794694
H11	H	0.306279	0.338513	0.294844
C17	C	0.046657	0.542831	0.637737
C18	C	0.299918	0.458270	0.137501
H12	H	0.221822	0.478144	0.143880
C19	C	0.103706	0.492992	0.547307
C20	C	0.356836	0.508112	0.046801
C21	C	0.436987	0.081917	0.453858
C22	C	0.186461	0.916651	0.954182
C23	C	0.060730	0.405840	0.461679
C24	C	0.312713	0.593879	0.959708
Ni3	Ni	0.747197	0.753640	0.835964
Ni4	Ni	0.500319	0.245480	0.339573
O9	O	0.611596	0.356377	0.377951
O10	O	0.862148	0.643663	0.875199
O11	O	0.887594	0.132093	0.366528
O12	O	0.635269	0.866605	0.868183
O13	O	0.971199	0.368506	0.466691
O14	O	0.722521	0.628961	0.964342
O15	O	0.527496	0.115997	0.463143
O16	O	0.776884	0.882169	0.960933
N5	N	0.804670	0.859220	0.713966
N6	N	0.558018	0.140503	0.216709
N7	N	0.690138	0.644396	0.716223
N8	N	0.943186	0.356492	0.217779
C25	C	0.791060	0.975012	0.532636
C26	C	0.542181	0.024694	0.035506
H13	H	0.995337	0.988400	0.963693
C27	C	0.892226	0.999467	0.540557
C28	C	0.643312	0.999720	0.041690
C29	C	0.949200	0.952237	0.635756
C30	C	0.701469	0.047233	0.135744
C31	C	0.703971	0.520841	0.541178
C32	C	0.957280	0.480360	0.042147
H14	H	0.749067	0.482258	0.471539
C33	C	0.745670	0.597932	0.628523
C34	C	0.998677	0.403347	0.130221
H15	H	0.823324	0.623149	0.630133
H16	H	0.576408	0.378457	0.132091
C35	C	0.749081	0.903609	0.622156
C36	C	0.501382	0.096050	0.125873
H17	H	0.670825	0.881421	0.622089
H18	H	0.923215	0.118160	0.127295
C37	C	0.902384	0.881084	0.721817
C38	C	0.655764	0.118649	0.222607
H19	H	0.942056	0.840512	0.797913
H20	H	0.696516	0.159347	0.297836
C39	C	0.593038	0.619955	0.721873
C40	C	0.846073	0.381359	0.222307
H21	H	0.553780	0.663137	0.794694
H22	H	0.806280	0.338513	0.294844
C41	C	0.546658	0.542831	0.637737
C42	C	0.799918	0.458270	0.137501
H23	H	0.968696	0.522384	0.644679
H24	H	0.721822	0.478144	0.143880
C43	C	0.603706	0.492992	0.547307
C44	C	0.856836	0.508112	0.046801
C45	C	0.936987	0.081917	0.453858
C46	C	0.686461	0.916651	0.954182
C47	C	0.560730	0.405840	0.461679
C48	C	0.812713	0.593879	0.959708
O17	O	0.547613	0.976067	0.642709
C49	C	0.611736	0.934979	0.731845
C50	C	0.715259	0.981784	0.706671
H25	H	0.612059	0.831612	0.733824
H26	H	0.588384	0.971532	0.819752
C51	C	0.789040	0.938751	0.802900
H27	H	0.714919	1.085052	0.703755
H28	H	0.738427	0.946112	0.618433
H29	H	0.768180	0.974913	0.891775
H30	H	0.863415	0.974155	0.782156
H31	H	0.791746	0.835633	0.806247
O18	O	0.299928	0.023453	0.140906
C52	C	0.365154	0.064791	0.228747
C53	C	0.468313	0.017943	0.201719
H32	H	0.365479	0.168163	0.230467
H33	H	0.342950	0.028465	0.317208
C54	C	0.543283	0.061247	0.296468
H34	H	0.467959	-0.085333	0.199062
H35	H	0.490330	0.053386	0.112932
H36	H	0.523582	0.025316	0.385849
H37	H	0.617363	0.025805	0.274396
H38	H	0.546008	0.164374	0.299512
O19	O	0.258052	0.472616	0.451085
C55	C	0.357194	0.492777	0.434922
C56	C	0.389597	0.422409	0.324019
H39	H	0.370870	0.593825	0.422426
H40	H	0.399947	0.458686	0.514366
C57	C	0.498891	0.441745	0.302248
H41	H	0.375290	0.321504	0.335969
H42	H	0.346419	0.455697	0.244676
H43	H	0.543668	0.407374	0.379751
H44	H	0.520165	0.389573	0.221238
H45	H	0.514728	0.541895	0.288237
O20	O	0.512148	0.528554	-0.047337
C58	C	0.611480	0.508611	-0.062213
C59	C	0.644725	0.578870	-0.172789
H46	H	0.625423	0.407575	-0.074368
H47	H	0.653510	0.542942	0.017690
C60	C	0.754256	0.559767	-0.193145
H48	H	0.630155	0.679760	-0.161187
H49	H	0.602268	0.545341	-0.252597
H50	H	0.798326	0.594380	-0.115158
H51	H	0.776143	0.611853	-0.273948
H52	H	0.770372	0.459633	-0.206789
O21	O	0.736337	1.020869	0.438833
C61	C	0.636421	1.003664	0.420506
C62	C	0.603500	1.069849	0.305585
H53	H	0.620140	0.902683	0.412049
H54	H	0.596026	1.043082	0.497064
C63	C	0.493344	1.053578	0.281302
H55	H	0.620398	1.170637	0.313522
H56	H	0.644341	1.031221	0.229104
H57	H	0.450894	1.093258	0.355847
H58	H	0.471710	1.102603	0.197398
H59	H	0.474894	0.953503	0.271226
O22	O	0.799928	0.023454	0.140905
C64	C	0.865157	0.064813	0.228734
C65	C	0.968315	0.017955	0.201712
H60	H	0.842957	0.028509	0.317206
H61	H	0.865483	0.168183	0.230429
C66	C	1.043290	0.061290	0.296441
H62	H	0.990327	0.053369	0.112914
H63	H	0.967960	-0.085323	0.199085
H64	H	1.046015	0.164419	0.299452
H65	H	1.117368	0.025839	0.274375
H66	H	1.023594	0.025391	0.385835
O23	O	0.448986	0.515809	0.641999
C67	C	0.385001	0.559112	0.726565
C68	C	0.282258	0.507271	0.699657
H67	H	0.382358	0.662399	0.723527
H68	H	0.410222	0.528050	0.817058
C69	C	0.208657	0.552529	0.790840
H69	H	0.284905	0.404033	0.701754
H70	H	0.257236	0.537442	0.608882
H71	H	0.231389	0.521818	0.882185
H72	H	0.134851	0.513373	0.768940
H73	H	0.203653	0.655553	0.789090
O24	O	1.012148	0.528554	-0.047337
C70	C	1.111480	0.508611	-0.062213
C71	C	1.144725	0.578870	-0.172789
H74	H	1.125423	0.407575	-0.074368
H75	H	1.153510	0.542942	0.017690
C72	C	1.254256	0.559767	-0.193145
H76	H	1.130155	0.679760	-0.161187
H77	H	1.102268	0.545341	-0.252597
H78	H	1.298326	0.594380	-0.115158
H79	H	1.276143	0.611853	-0.273948
H80	H	1.270372	0.459633	-0.206789

loop_
_geom_bond_atom_site_label_1
_geom_bond_atom_site_label_2
_geom_bond_distance
Ni1	O2	0.16385
Ni1	O4	0.16226
Ni1	O6	0.18065
Ni1	O8	0.18171
Ni1	N1	0.17127
Ni1	N3	0.17184
Ni2	O1	0.16172
Ni2	O7	0.18104
Ni2	N2	0.17160
Ni2	O11	0.16214
Ni2	O13	0.17928
Ni2	N8	0.17442
O1	C23	0.10975
O2	C24	0.10984
O3	C21	0.11218
O3	Ni4	0.16214
O4	C22	0.11190
O5	Ni4	0.17928
O5	C47	0.09713
O6	C24	0.09689
O7	C45	0.09716
O8	C22	0.09701
N1	C11	0.11614
N1	C13	0.10044
N2	C12	0.11591
N2	C14	0.10033
N3	C9	0.11373
N3	C15	0.10029
N4	C10	0.11376
N4	C16	0.10035
N4	Ni4	0.17442
C1	H1	0.09333
C1	C3	0.10438
C1	C11	0.12196
C2	C4	0.10435
C2	C12	0.12216
C2	H13	0.09311
H2	C26	0.09311
C3	C5	0.12058
C3	C21	0.12774
C4	C6	0.12036
C4	C22	0.12814
C5	C13	0.12108
C5	O17	0.10150
C6	C14	0.12139
C6	O18	0.10142
H3	C29	0.08111
C7	C9	0.12374
C7	C19	0.10424
C7	O19	0.11562
C8	C10	0.12410
C8	C20	0.10431
C8	O20	0.11550
C9	H4	0.08166
C10	H16	0.08164
H5	C34	0.08164
C11	H6	0.08134
C12	H18	0.08125
H7	C36	0.08125
C13	H8	0.09492
C14	H9	0.09474
C15	H10	0.09332
C15	C17	0.12320
C16	H11	0.09317
C16	C18	0.12344
C17	C19	0.11797
C17	H23	0.08090
C18	H12	0.08084
C18	C20	0.11811
C19	C23	0.12952
C20	C24	0.12995
C21	O15	0.09716
C23	O13	0.09713
Ni3	O10	0.16385
Ni3	O12	0.16226
Ni3	O14	0.18065
Ni3	O16	0.18171
Ni3	N5	0.17127
Ni3	N7	0.17184
Ni4	O9	0.16172
Ni4	O15	0.18104
Ni4	N6	0.17160
O9	C47	0.10975
O10	C48	0.10984
O11	C45	0.11218
O12	C46	0.11190
O14	C48	0.09689
O16	C46	0.09701
N5	C35	0.11614
N5	C37	0.10044
N6	C36	0.11591
N6	C38	0.10033
N7	C33	0.11373
N7	C39	0.10029
N8	C34	0.11376
N8	C40	0.10035
C25	C27	0.10438
C25	C35	0.12196
C25	O21	0.11788
C26	C28	0.10435
C26	C36	0.12216
C27	C29	0.12058
C27	C45	0.12774
C28	C30	0.12036
C28	C46	0.12814
C29	C37	0.12108
C30	C38	0.12139
C30	O22	0.10142
C31	H14	0.09150
C31	C33	0.12374
C31	C43	0.10424
C32	C34	0.12410
C32	C44	0.10431
C32	O24	0.11550
C33	H15	0.08166
C35	H17	0.08134
C37	H19	0.09492
C38	H20	0.09474
C39	H21	0.09332
C39	C41	0.12320
C40	H22	0.09317
C40	C42	0.12344
C41	C43	0.11797
C41	O23	0.10143
C42	H24	0.08084
C42	C44	0.11811
C43	C47	0.12952
C44	C48	0.12995
O17	C49	0.11724
C49	C50	0.11637
C49	H25	0.10339
C49	H26	0.09803
C50	C51	0.12867
C50	H27	0.10331
C50	H28	0.09796
C51	H29	0.09819
C51	H30	0.08494
C51	H31	0.10321
O18	C52	0.11696
C52	C53	0.11648
C52	H32	0.10339
C52	H33	0.09817
C53	C54	0.12835
C53	H34	0.10331
C53	H35	0.09810
C54	H36	0.09833
C54	H37	0.08504
C54	H38	0.10321
O19	C55	0.10245
C55	C56	0.13528
C55	H39	0.10273
C55	H40	0.09644
C56	C57	0.11311
C56	H41	0.10261
C56	H42	0.09627
C57	H43	0.09588
C57	H44	0.09868
C57	H45	0.10236
O20	C58	0.10240
C58	C59	0.13516
C58	H46	0.10271
C58	H47	0.09659
C59	C60	0.11303
C59	H48	0.10259
C59	H49	0.09642
C60	H50	0.09603
C60	H51	0.09860
C60	H52	0.10234
O21	C61	0.10303
C61	C62	0.13664
C61	H53	0.10263
C61	H54	0.09511
C62	C63	0.11397
C62	H55	0.10250
C62	H56	0.09492
C63	H57	0.09452
C63	H58	0.09956
C63	H59	0.10226
O22	C64	0.11696
C64	C65	0.11648
C64	H60	0.09817
C64	H61	0.10338
C65	C66	0.12835
C65	H62	0.09810
C65	H63	0.10331
C66	H64	0.10321
C66	H65	0.08504
C66	H66	0.09833
O23	C67	0.11455
C67	C68	0.11819
C67	H67	0.10337
C67	H68	0.09894
C68	C69	0.12562
C68	H69	0.10329
C68	H70	0.09888
C69	H71	0.09901
C69	H72	0.08637
C69	H73	0.10316
O24	C70	0.10240
C70	C71	0.13516
C70	H74	0.10271
C70	H75	0.09659
C71	C72	0.11303
C71	H76	0.10259
