data_NiPyC2_vc-relax_NiPyC2_vc-relax_aligned_CH2-CH3_NiPyC2_vc-relax_aligned_CH2-CH3_NiPyC2_vc-relax_aligned_CH2-CH3_NiPyC2_vc-relax_aligned_CH2-CH3_NiPyC2_vc-relax_aligned_CH2-CH3_NiPyC2_vc-relax_aligned_CH2-CH3_NiPyC2_vc-relax_aligned_CH2-CH3_NiPyC2_vc-relax_aligned_CH2-CH3_PM
_symmetry_space_group_name_H-M	'P1'
_cell_length_a	13.596920
_cell_length_b	10.761410
_cell_length_c	11.188340
_cell_angle_alpha	90.000000
_cell_angle_beta	91.370820
_cell_angle_gamma	90.000000
_symmetry_Int_Tables_number 1

loop_
_symmetry_equiv_pos_as_xyz
'x,y,z'

loop_
_atom_site_label
_atom_site_type_symbol
_atom_site_fract_x
_atom_site_fract_y
_atom_site_fract_z
Ni1	Ni	0.247197	0.753640	0.835964
Ni2	Ni	0.000319	0.245480	0.339573
O1	O	0.111597	0.356377	0.377951
O2	O	0.362148	0.643663	0.875199
O3	O	0.387594	0.132093	0.366528
O4	O	0.135269	0.866605	0.868183
O5	O	0.471199	0.368506	0.466691
O6	O	0.222521	0.628961	0.964342
O7	O	0.027495	0.115997	0.463143
O8	O	0.276884	0.882169	0.960933
N1	N	0.304670	0.859220	0.713966
N2	N	0.058019	0.140503	0.216709
N3	N	0.190138	0.644396	0.716223
N4	N	0.443186	0.356492	0.217779
C1	C	0.291060	0.975012	0.532636
C2	C	0.042181	0.024694	0.035506
H1	H	0.245183	0.011831	0.460177
H2	H	0.495337	0.988400	0.963693
C3	C	0.392226	0.999467	0.540557
C4	C	0.143313	0.999720	0.041690
C5	C	0.449200	0.952237	0.635756
C6	C	0.201469	0.047233	0.135744
H3	H	0.027666	0.970603	0.644986
H4	H	0.280056	0.029159	0.143552
C7	C	0.203970	0.520841	0.541178
C8	C	0.457280	0.480360	0.042147
H5	H	0.249067	0.482258	0.471539
H6	H	0.003156	0.518378	0.972910
C9	C	0.245670	0.597932	0.628523
C10	C	0.498677	0.403347	0.130221
H7	H	0.323324	0.623149	0.630133
H8	H	0.076408	0.378457	0.132091
C11	C	0.249081	0.903609	0.622156
C12	C	0.001383	0.096050	0.125873
H9	H	0.170825	0.881421	0.622089
H10	H	0.423215	0.118160	0.127295
C13	C	0.402384	0.881084	0.721817
C14	C	0.155764	0.118649	0.222607
C15	C	0.093038	0.619955	0.721873
C16	C	0.346073	0.381359	0.222307
H11	H	0.306279	0.338513	0.294844
C17	C	0.046657	0.542831	0.637737
C18	C	0.299918	0.458270	0.137501
H12	H	0.468696	0.522384	0.644679
H13	H	0.221822	0.478144	0.143880
C19	C	0.103706	0.492992	0.547307
C20	C	0.356836	0.508112	0.046801
C21	C	0.436987	0.081917	0.453858
C22	C	0.186461	0.916651	0.954182
C23	C	0.060730	0.405840	0.461679
C24	C	0.312713	0.593879	0.959708
Ni3	Ni	0.747197	0.753640	0.835964
Ni4	Ni	0.500319	0.245480	0.339573
O9	O	0.611596	0.356377	0.377951
O10	O	0.862148	0.643663	0.875199
O11	O	0.887594	0.132093	0.366528
O12	O	0.635269	0.866605	0.868183
O13	O	0.971199	0.368506	0.466691
O14	O	0.722521	0.628961	0.964342
O15	O	0.527496	0.115997	0.463143
O16	O	0.776884	0.882169	0.960933
N5	N	0.804670	0.859220	0.713966
N6	N	0.558018	0.140503	0.216709
N7	N	0.690138	0.644396	0.716223
N8	N	0.943186	0.356492	0.217779
C25	C	0.791060	0.975012	0.532636
C26	C	0.542181	0.024694	0.035506
H14	H	0.745183	0.011831	0.460177
H15	H	0.995337	0.988400	0.963693
C27	C	0.892226	0.999467	0.540557
C28	C	0.643312	0.999720	0.041690
C29	C	0.949200	0.952237	0.635756
C30	C	0.701469	0.047233	0.135744
H16	H	0.527666	0.970603	0.644986
H17	H	0.780056	0.029159	0.143552
C31	C	0.703971	0.520841	0.541178
C32	C	0.957280	0.480360	0.042147
H18	H	0.749067	0.482258	0.471539
H19	H	0.503156	0.518378	0.972910
C33	C	0.745670	0.597932	0.628523
C34	C	0.998677	0.403347	0.130221
H20	H	0.823324	0.623149	0.630133
C35	C	0.749081	0.903609	0.622156
C36	C	0.501382	0.096050	0.125873
H21	H	0.923215	0.118160	0.127295
C37	C	0.902384	0.881084	0.721817
C38	C	0.655764	0.118649	0.222607
H22	H	0.942056	0.840512	0.797913
C39	C	0.593038	0.619955	0.721873
C40	C	0.846073	0.381359	0.222307
C41	C	0.546658	0.542831	0.637737
C42	C	0.799918	0.458270	0.137501
H23	H	0.968696	0.522384	0.644679
H24	H	0.721822	0.478144	0.143880
C43	C	0.603706	0.492992	0.547307
C44	C	0.856836	0.508112	0.046801
C45	C	0.936987	0.081917	0.453858
C46	C	0.686461	0.916651	0.954182
C47	C	0.560730	0.405840	0.461679
C48	C	0.812713	0.593879	0.959708
C49	C	0.464596	0.826194	0.828677
C50	C	0.408212	0.749195	0.919461
H25	H	0.499823	0.904107	0.878858
H26	H	0.522392	0.764737	0.792417
H27	H	0.351098	0.806706	0.962323
H28	H	0.460071	0.715600	0.990538
H29	H	0.373738	0.666892	0.875608
C51	C	0.219433	0.173831	0.328107
C52	C	0.164310	0.251073	0.419858
H30	H	0.255337	0.096058	0.377787
H31	H	0.276694	0.235193	0.290516
H32	H	0.107819	0.193675	0.464030
H33	H	0.217108	0.284867	0.489821
H34	H	0.129244	0.333255	0.376482
C53	C	0.031300	0.678394	0.823617
C54	C	0.087417	0.761966	0.912483
H35	H	-0.028254	0.735922	0.782297
H36	H	-0.001631	0.602138	0.876361
H37	H	0.119596	0.842918	0.865814
H38	H	0.035896	0.797612	0.979978
H39	H	0.146305	0.708708	0.960180
C55	C	0.610693	0.371557	0.126601
C56	C	0.650648	0.286597	0.226177
H40	H	0.653384	0.459485	0.132463
H41	H	0.625583	0.324496	0.040502
H42	H	0.641042	0.330332	0.315069
H43	H	0.730518	0.270971	0.213952
H44	H	0.613153	0.194912	0.222816
C57	C	0.636413	0.875276	0.615181
C58	C	0.595892	0.796392	0.716664
H45	H	0.619559	0.824702	0.530557
H46	H	0.595585	0.964721	0.615425
H47	H	0.631478	0.703478	0.718860
H48	H	0.515569	0.782761	0.701746
H49	H	0.607427	0.843943	0.804000
C59	C	0.719433	0.173831	0.328107
C60	C	0.664310	0.251073	0.419858
H50	H	0.755337	0.096058	0.377787
H51	H	0.776694	0.235193	0.290516
H52	H	0.607819	0.193675	0.464030
H53	H	0.717108	0.284867	0.489821
H54	H	0.629244	0.333255	0.376482
C61	C	0.531300	0.678394	0.823617
C62	C	0.587417	0.761966	0.912483
H55	H	0.471746	0.735922	0.782297
H56	H	0.498369	0.602138	0.876361
H57	H	0.619596	0.842918	0.865814
H58	H	0.535896	0.797612	0.979978
H59	H	0.646305	0.708708	0.960180
C63	C	0.783589	0.323509	0.323877
C64	C	0.839122	0.240238	0.413541
H60	H	0.750471	0.400088	0.376015
H61	H	0.724175	0.265916	0.282338
H62	H	0.897830	0.293592	0.461467
H63	H	0.787181	0.205029	0.480767
H64	H	0.871451	0.158992	0.367493

loop_
_geom_bond_atom_site_label_1
_geom_bond_atom_site_label_2
_geom_bond_distance
Ni1	O2	0.16385
Ni1	O4	0.16226
Ni1	O6	0.18065
Ni1	O8	0.18171
Ni1	N1	0.17127
Ni1	N3	0.17184
Ni2	O1	0.16172
Ni2	O7	0.18104
Ni2	N2	0.17160
Ni2	O11	0.16214
Ni2	O13	0.17928
Ni2	N8	0.17442
O1	C23	0.10975
O2	C24	0.10984
O3	C21	0.11218
O3	Ni4	0.16214
O4	C22	0.11190
O5	Ni4	0.17928
O5	C47	0.09713
O6	C24	0.09689
O7	C45	0.09716
O8	C22	0.09701
N1	C11	0.11614
N1	C13	0.10044
N2	C12	0.11591
N2	C14	0.10033
N3	C9	0.11373
N3	C15	0.10029
N4	C10	0.11376
N4	C16	0.10035
N4	Ni4	0.17442
C1	H1	0.09333
C1	C3	0.10438
C1	C11	0.12196
C2	C4	0.10435
C2	C12	0.12216
C2	H15	0.09311
H2	C26	0.09311
C3	C5	0.12058
C3	C21	0.12774
C4	C6	0.12036
C4	C22	0.12814
C5	C13	0.12108
C5	H16	0.08111
C6	H4	0.08102
C6	C14	0.12139
H3	C29	0.08111
C7	H5	0.09150
C7	C9	0.12374
C7	C19	0.10424
C8	C10	0.12410
C8	C20	0.10431
C8	H19	0.09134
H6	C32	0.09134
C9	H7	0.08166
C10	C55	0.11649
H8	C34	0.08164
C11	H9	0.08134
C12	H21	0.08125
H10	C36	0.08125
C13	C49	0.13529
C14	C51	0.13501
C15	C17	0.12320
C15	C53	0.13258
C16	H11	0.09317
C16	C18	0.12344
C17	C19	0.11797
C17	H23	0.08090
C18	H13	0.08084
C18	C20	0.11811
H12	C41	0.08090
C19	C23	0.12952
C20	C24	0.12995
C21	O15	0.09716
C23	O13	0.09713
Ni3	O10	0.16385
Ni3	O12	0.16226
Ni3	O14	0.18065
Ni3	O16	0.18171
Ni3	N5	0.17127
Ni3	N7	0.17184
Ni4	O9	0.16172
Ni4	O15	0.18104
Ni4	N6	0.17160
O9	C47	0.10975
O10	C48	0.10984
O11	C45	0.11218
O12	C46	0.11190
O14	C48	0.09689
O16	C46	0.09701
N5	C35	0.11614
N5	C37	0.10044
N6	C36	0.11591
N6	C38	0.10033
N7	C33	0.11373
N7	C39	0.10029
N8	C34	0.11376
N8	C40	0.10035
C25	H14	0.09333
C25	C27	0.10438
C25	C35	0.12196
C26	C28	0.10435
C26	C36	0.12216
C27	C29	0.12058
C27	C45	0.12774
C28	C30	0.12036
C28	C46	0.12814
C29	C37	0.12108
C30	H17	0.08102
C30	C38	0.12139
C31	H18	0.09150
C31	C33	0.12374
C31	C43	0.10424
C32	C34	0.12410
C32	C44	0.10431
C33	H20	0.08166
C35	C57	0.11639
C37	H22	0.09492
C38	C59	0.13501
C39	C41	0.12320
C39	C61	0.13258
C40	C42	0.12344
C40	C63	0.13254
C41	C43	0.11797
C42	H24	0.08084
C42	C44	0.11811
C43	C47	0.12952
C44	C48	0.12995
C49	C50	0.13172
C49	H25	0.09914
C49	H26	0.09183
C50	H27	0.09169
C50	H28	0.09418
C50	H29	0.09943
C51	C52	0.13200
C51	H30	0.09902
C51	H31	0.09196
C52	H32	0.09185
C52	H33	0.09394
C52	H34	0.09932
C53	C54	0.13428
C53	H35	0.09254
C53	H36	0.09839
C54	H37	0.09883
C54	H38	0.09209
C54	H39	0.09262
C55	C56	0.13686
C55	H40	0.09792
C55	H41	0.09925
C56	H42	0.09953
C56	H43	0.08230
C56	H44	0.09911
C57	C58	0.13477
C57	H45	0.10002
C57	H46	0.09832
C58	H47	0.09952
C58	H48	0.08283
C58	H49	0.10011
C59	C60	0.13200
C59	H50	0.09902
C59	H51	0.09196
C60	H52	0.09185
C60	H53	0.09394
C60	H54	0.09932
C61	C62	0.13428
C61	H55	0.09254
C61	H56	0.09839
C62	H57	0.09883
C62	H58	0.09209
C62	H59	0.09262
C63	C64	0.13438
C63	H60	0.09839
C63	H61	0.09259
C64	H62	0.09268
C64	H63	0.09196
C64	H64	0.09883
