data_NiPyC2_vc-relax_NiPyC2_vc-relax_aligned_O-CH2-CH2-CH3_NiPyC2_vc-relax_aligned_O-CH2-CH2-CH3_NiPyC2_vc-relax_aligned_O-CH2-CH2-CH3_NiPyC2_vc-relax_aligned_O-CH2-CH2-CH3_NiPyC2_vc-relax_aligned_O-CH2-CH2-CH3_NiPyC2_vc-relax_aligned_O-CH2-CH2-CH3_NiPyC2_vc-relax_aligned_O-CH2-CH2-CH3_NiPyC2_vc-relax_aligned_O-CH2-CH2-CH3_PM
_symmetry_space_group_name_H-M	'P1'
_cell_length_a	13.596920
_cell_length_b	10.761410
_cell_length_c	11.188340
_cell_angle_alpha	90.000000
_cell_angle_beta	91.370820
_cell_angle_gamma	90.000000
_symmetry_Int_Tables_number 1

loop_
_symmetry_equiv_pos_as_xyz
'x,y,z'

loop_
_atom_site_label
_atom_site_type_symbol
_atom_site_fract_x
_atom_site_fract_y
_atom_site_fract_z
Ni1	Ni	0.247197	0.753640	0.835964
Ni2	Ni	0.000319	0.245480	0.339573
O1	O	0.111597	0.356377	0.377951
O2	O	0.362148	0.643663	0.875199
O3	O	0.387594	0.132093	0.366528
O4	O	0.135269	0.866605	0.868183
O5	O	0.471199	0.368506	0.466691
O6	O	0.222521	0.628961	0.964342
O7	O	0.027495	0.115997	0.463143
O8	O	0.276884	0.882169	0.960933
N1	N	0.304670	0.859220	0.713966
N2	N	0.058019	0.140503	0.216709
N3	N	0.190138	0.644396	0.716223
N4	N	0.443186	0.356492	0.217779
C1	C	0.291060	0.975012	0.532636
C2	C	0.042181	0.024694	0.035506
H1	H	0.245183	0.011831	0.460177
H2	H	0.495337	0.988400	0.963693
C3	C	0.392226	0.999467	0.540557
C4	C	0.143313	0.999720	0.041690
C5	C	0.449200	0.952237	0.635756
C6	C	0.201469	0.047233	0.135744
H3	H	0.027666	0.970603	0.644986
H4	H	0.280056	0.029159	0.143552
C7	C	0.203970	0.520841	0.541178
C8	C	0.457280	0.480360	0.042147
H5	H	0.249067	0.482258	0.471539
H6	H	0.003156	0.518378	0.972910
C9	C	0.245670	0.597932	0.628523
C10	C	0.498677	0.403347	0.130221
H7	H	0.076408	0.378457	0.132091
C11	C	0.249081	0.903609	0.622156
C12	C	0.001383	0.096050	0.125873
C13	C	0.402384	0.881084	0.721817
C14	C	0.155764	0.118649	0.222607
H8	H	0.442056	0.840512	0.797913
H9	H	0.196516	0.159347	0.297836
C15	C	0.093038	0.619955	0.721873
C16	C	0.346073	0.381359	0.222307
H10	H	0.053780	0.663137	0.794694
C17	C	0.046657	0.542831	0.637737
C18	C	0.299918	0.458270	0.137501
H11	H	0.468696	0.522384	0.644679
H12	H	0.221822	0.478144	0.143880
C19	C	0.103706	0.492992	0.547307
C20	C	0.356836	0.508112	0.046801
C21	C	0.436987	0.081917	0.453858
C22	C	0.186461	0.916651	0.954182
C23	C	0.060730	0.405840	0.461679
C24	C	0.312713	0.593879	0.959708
Ni3	Ni	0.747197	0.753640	0.835964
Ni4	Ni	0.500319	0.245480	0.339573
O9	O	0.611596	0.356377	0.377951
O10	O	0.862148	0.643663	0.875199
O11	O	0.887594	0.132093	0.366528
O12	O	0.635269	0.866605	0.868183
O13	O	0.971199	0.368506	0.466691
O14	O	0.722521	0.628961	0.964342
O15	O	0.527496	0.115997	0.463143
O16	O	0.776884	0.882169	0.960933
N5	N	0.804670	0.859220	0.713966
N6	N	0.558018	0.140503	0.216709
N7	N	0.690138	0.644396	0.716223
N8	N	0.943186	0.356492	0.217779
C25	C	0.791060	0.975012	0.532636
C26	C	0.542181	0.024694	0.035506
H13	H	0.745183	0.011831	0.460177
H14	H	0.995337	0.988400	0.963693
C27	C	0.892226	0.999467	0.540557
C28	C	0.643312	0.999720	0.041690
C29	C	0.949200	0.952237	0.635756
C30	C	0.701469	0.047233	0.135744
H15	H	0.527666	0.970603	0.644986
H16	H	0.780056	0.029159	0.143552
C31	C	0.703971	0.520841	0.541178
C32	C	0.957280	0.480360	0.042147
H17	H	0.749067	0.482258	0.471539
H18	H	0.503156	0.518378	0.972910
C33	C	0.745670	0.597932	0.628523
C34	C	0.998677	0.403347	0.130221
H19	H	0.823324	0.623149	0.630133
H20	H	0.576408	0.378457	0.132091
C35	C	0.749081	0.903609	0.622156
C36	C	0.501382	0.096050	0.125873
H21	H	0.670825	0.881421	0.622089
C37	C	0.902384	0.881084	0.721817
C38	C	0.655764	0.118649	0.222607
H22	H	0.696516	0.159347	0.297836
C39	C	0.593038	0.619955	0.721873
C40	C	0.846073	0.381359	0.222307
C41	C	0.546658	0.542831	0.637737
C42	C	0.799918	0.458270	0.137501
H23	H	0.968696	0.522384	0.644679
H24	H	0.721822	0.478144	0.143880
C43	C	0.603706	0.492992	0.547307
C44	C	0.856836	0.508112	0.046801
C45	C	0.936987	0.081917	0.453858
C46	C	0.686461	0.916651	0.954182
C47	C	0.560730	0.405840	0.461679
C48	C	0.812713	0.593879	0.959708
O17	O	0.148686	0.880137	0.613251
C49	C	0.096050	0.811353	0.694067
C50	C	-0.011874	0.806843	0.653133
H25	H	0.101757	0.855484	0.783893
H26	H	0.125791	0.715117	0.698794
C51	C	-0.073297	0.731686	0.739696
H27	H	-0.017650	0.763627	0.562979
H28	H	-0.041515	0.903006	0.647485
H29	H	-0.045914	0.634557	0.745434
H30	H	-0.151194	0.730121	0.707595
H31	H	-0.069837	0.774274	0.830147
O18	O	-0.099131	0.119455	0.118838
C52	C	-0.150759	0.188162	0.200676
C53	C	-0.259148	0.192604	0.161735
H32	H	-0.121021	0.284422	0.204891
H33	H	-0.143905	0.143997	0.290400
C54	C	-0.319492	0.267666	0.249493
H34	H	-0.288797	0.096420	0.156590
H35	H	-0.266074	0.235861	0.071684
H36	H	-0.314878	0.225032	0.339882
H37	H	-0.397756	0.269184	0.218827
H38	H	-0.292099	0.364813	0.254772
O19	O	0.345215	0.624915	0.622176
C55	C	0.397324	0.699588	0.701669
C56	C	0.504524	0.706354	0.664348
H39	H	0.393997	0.659661	0.793210
H40	H	0.365303	0.794734	0.701010
C57	C	0.565345	0.788016	0.749604
H41	H	0.507937	0.745355	0.572522
H42	H	0.536429	0.611233	0.664078
H43	H	0.535675	0.884195	0.749998
H44	H	0.642724	0.791088	0.720188
H45	H	0.564236	0.749748	0.841779
O20	O	0.288369	0.331419	0.311453
C58	C	0.322262	0.253909	0.401846
C59	C	0.236808	0.219154	0.481483
H46	H	0.353528	0.167987	0.362559
H47	H	0.379880	0.302508	0.456467
C60	C	0.270554	0.133360	0.583010
H48	H	0.204986	0.304988	0.520103
H49	H	0.178822	0.171409	0.426855
H50	H	0.327556	0.179895	0.639982
H51	H	0.206958	0.109810	0.639182
H52	H	0.301330	0.045989	0.546507
O21	O	0.959860	0.833647	0.815697
C61	C	0.925240	0.761731	0.907929
C62	C	1.010738	0.728096	0.992898
H53	H	0.891797	0.675050	0.871087
H54	H	0.869182	0.814782	0.957741
C63	C	0.976202	0.648443	1.096630
H55	H	1.044730	0.814639	1.029104
H56	H	1.067183	0.675886	0.943058
H57	H	0.920740	0.699527	1.148910
H58	H	1.039849	0.625574	1.156670
H59	H	0.943246	0.560434	1.062657
O22	O	0.400869	0.119455	0.118838
C64	C	0.349241	0.188162	0.200676
C65	C	0.240852	0.192604	0.161735
H60	H	0.378979	0.284422	0.204891
H61	H	0.356095	0.143997	0.290400
C66	C	0.180508	0.267666	0.249493
H62	H	0.211203	0.096420	0.156590
H63	H	0.233926	0.235861	0.071684
H64	H	0.185122	0.225032	0.339882
H65	H	0.102244	0.269184	0.218827
H66	H	0.207901	0.364813	0.254772
O23	O	0.536002	0.670415	0.811188
C67	C	0.570481	0.748273	0.900985
C68	C	0.485521	0.783601	0.981163
H67	H	0.601644	0.833937	0.861070
H68	H	0.628319	0.699800	0.955364
C69	C	0.519924	0.869795	1.082061
H69	H	0.453798	0.698023	1.020415
H70	H	0.427313	0.831221	0.926784
H71	H	0.577162	0.823399	1.138786
H72	H	0.456676	0.893757	1.138645
H73	H	0.550614	0.956922	1.044928
O24	O	0.788369	0.331418	0.311452
C70	C	0.822258	0.253889	0.401832
C71	C	0.736806	0.219142	0.481475
H74	H	0.879887	0.302467	0.456454
H75	H	0.853509	0.167966	0.362529
C72	C	0.770546	0.133319	0.582981
H76	H	0.678806	0.171425	0.426847
H77	H	0.705003	0.304980	0.520115
H78	H	0.801301	0.045945	0.546457
H79	H	0.706952	0.109777	0.639159
H80	H	0.827563	0.179824	0.639952

loop_
_geom_bond_atom_site_label_1
_geom_bond_atom_site_label_2
_geom_bond_distance
Ni1	O2	0.16385
Ni1	O4	0.16226
Ni1	O6	0.18065
Ni1	O8	0.18171
Ni1	N1	0.17127
Ni1	N3	0.17184
Ni2	O1	0.16172
Ni2	O7	0.18104
Ni2	N2	0.17160
Ni2	O11	0.16214
Ni2	O13	0.17928
Ni2	N8	0.17442
O1	C23	0.10975
O2	C24	0.10984
O3	C21	0.11218
O3	Ni4	0.16214
O4	C22	0.11190
O5	Ni4	0.17928
O5	C47	0.09713
O6	C24	0.09689
O7	C45	0.09716
O8	C22	0.09701
N1	C11	0.11614
N1	C13	0.10044
N2	C12	0.11591
N2	C14	0.10033
N3	C9	0.11373
N3	C15	0.10029
N4	C10	0.11376
N4	C16	0.10035
N4	Ni4	0.17442
C1	H1	0.09333
C1	C3	0.10438
C1	C11	0.12196
C2	C4	0.10435
C2	C12	0.12216
C2	H14	0.09311
H2	C26	0.09311
C3	C5	0.12058
C3	C21	0.12774
C4	C6	0.12036
C4	C22	0.12814
C5	C13	0.12108
C5	H15	0.08111
C6	H4	0.08102
C6	C14	0.12139
H3	C29	0.08111
C7	H5	0.09150
C7	C9	0.12374
C7	C19	0.10424
C8	C10	0.12410
C8	C20	0.10431
C8	H18	0.09134
H6	C32	0.09134
C9	O19	0.10333
C10	H20	0.08164
H7	C34	0.08164
C11	O17	0.10349
C12	O18	0.10344
C13	H8	0.09492
C14	H9	0.09474
C15	H10	0.09332
C15	C17	0.12320
C16	C18	0.12344
C16	O20	0.11735
C17	C19	0.11797
C17	H23	0.08090
C18	H12	0.08084
C18	C20	0.11811
H11	C41	0.08090
C19	C23	0.12952
C20	C24	0.12995
C21	O15	0.09716
C23	O13	0.09713
Ni3	O10	0.16385
Ni3	O12	0.16226
Ni3	O14	0.18065
Ni3	O16	0.18171
Ni3	N5	0.17127
Ni3	N7	0.17184
Ni4	O9	0.16172
Ni4	O15	0.18104
Ni4	N6	0.17160
O9	C47	0.10975
O10	C48	0.10984
O11	C45	0.11218
O12	C46	0.11190
O14	C48	0.09689
O16	C46	0.09701
N5	C35	0.11614
N5	C37	0.10044
N6	C36	0.11591
N6	C38	0.10033
N7	C33	0.11373
N7	C39	0.10029
N8	C34	0.11376
N8	C40	0.10035
C25	H13	0.09333
C25	C27	0.10438
C25	C35	0.12196
C26	C28	0.10435
C26	C36	0.12216
C27	C29	0.12058
C27	C45	0.12774
C28	C30	0.12036
C28	C46	0.12814
C29	C37	0.12108
C30	H16	0.08102
C30	C38	0.12139
C31	H17	0.09150
C31	C33	0.12374
C31	C43	0.10424
C32	C34	0.12410
C32	C44	0.10431
C33	H19	0.08166
C35	H21	0.08134
C36	O22	0.10344
C37	O21	0.11986
C38	H22	0.09474
C39	C41	0.12320
C39	O23	0.11737
C40	C42	0.12344
C40	O24	0.11735
C41	C43	0.11797
C42	H24	0.08084
C42	C44	0.11811
C43	C47	0.12952
C44	C48	0.12995
O17	C49	0.11846
C49	C50	0.11551
C49	H25	0.10024
C49	H26	0.10084
C50	C51	0.13006
C50	H27	0.10014
C50	H28	0.10079
C51	H29	0.10108
C51	H30	0.08427
C51	H31	0.10004
O18	C52	0.11868
C52	C53	0.11526
C52	H32	0.10084
C52	H33	0.10024
C53	C54	0.13030
C53	H34	0.10078
C53	H35	0.10014
C54	H36	0.10005
C54	H37	0.08407
C54	H38	0.10107
O19	C55	0.12087
C55	C56	0.11371
C55	H39	0.09993
C55	H40	0.10039
C56	C57	0.13280
C56	H41	0.09982
C56	H42	0.10033
C57	H43	0.10065
C57	H44	0.08284
C57	H45	0.09981
O20	C58	0.12380
C58	C59	0.12187
C58	H46	0.09952
C58	H47	0.09309
C59	C60	0.13714
C59	H48	0.09936
C59	H49	0.09288
C60	H50	0.09306
C60	H51	0.08806
C60	H52	0.09957
O21	C61	0.12197
C61	C62	0.12514
C61	H53	0.09995
C61	H54	0.09186
C62	C63	0.13527
C62	H55	0.09978
C62	H56	0.09163
C63	H57	0.09175
C63	H58	0.09044
C63	H59	0.09993
O22	C64	0.11868
C64	C65	0.11526
C64	H60	0.10084
C64	H61	0.10024
C65	C66	0.13030
C65	H62	0.10078
C65	H63	0.10014
C66	H64	0.10005
C66	H65	0.08407
C66	H66	0.10107
O23	C67	0.12375
C67	C68	0.12204
C67	H67	0.09951
C67	H68	0.09302
C68	C69	0.13709
C68	H69	0.09935
C68	H70	0.09281
C69	H71	0.09299
C69	H72	0.08818
C69	H73	0.09956
O24	C70	0.12380
C70	C71	0.12187
C70	H74	0.09308
C70	H75	0.09952
C71	C72	0.13714
C71	H76	0.09287
