data_NiPyC2_relax_NiPyC2_relax_aligned_CH2-CH2-CH3_NiPyC2_relax_aligned_CH2-CH2-CH3_NiPyC2_relax_aligned_CH2-CH2-CH3_NiPyC2_relax_aligned_CH2-CH2-CH3_PM
_symmetry_space_group_name_H-M	'P1'
_cell_length_a	6.252800
_cell_length_b	12.523400
_cell_length_c	10.276800
_cell_angle_alpha	90.000000
_cell_angle_beta	91.269000
_cell_angle_gamma	90.000000
_symmetry_Int_Tables_number 1

loop_
_symmetry_equiv_pos_as_xyz
'x,y,z'

loop_
_atom_site_label
_atom_site_type_symbol
_atom_site_fract_x
_atom_site_fract_y
_atom_site_fract_z
Ni1	Ni	0.494004	0.751486	0.836326
Ni2	Ni	0.999945	0.247999	0.339178
O1	O	0.245557	0.347689	0.382873
O2	O	0.742416	0.650977	0.881292
O3	O	0.755261	0.147507	0.377178
O4	O	0.250196	0.852352	0.876261
O5	O	0.946138	0.356160	0.482994
O6	O	0.442275	0.641415	0.979877
O7	O	0.057679	0.135158	0.481078
O8	O	0.553372	0.862758	0.979399
N1	N	0.616875	0.851253	0.704828
N2	N	0.121459	0.148857	0.206052
N3	N	0.373085	0.650310	0.705838
N4	N	0.877620	0.350928	0.208041
C1	C	0.576425	0.970050	0.521984
C2	C	0.076758	0.031106	0.022308
H1	H	0.474249	0.999575	0.443113
H2	H	0.973076	0.002692	0.943499
C3	C	0.781269	0.011770	0.546492
C4	C	0.280489	0.987744	0.046146
C5	C	0.903830	0.970202	0.650371
C6	C	0.405041	0.028353	0.149893
H3	H	0.064125	0.998805	0.673520
H4	H	0.564681	0.998665	0.172602
C7	C	0.416363	0.529704	0.526384
C8	C	0.917091	0.471409	0.027904
H5	H	0.517401	0.500895	0.449282
H6	H	0.017282	0.500397	0.950548
C9	C	0.490274	0.613331	0.606435
C10	C	0.993638	0.388677	0.108617
H7	H	0.645282	0.650506	0.592635
H8	H	0.149937	0.352851	0.095028
C11	C	0.498952	0.889206	0.603203
C12	C	0.002139	0.112232	0.104247
H9	H	0.844645	0.147732	0.089886
C13	C	0.815954	0.889383	0.727552
C14	C	0.319869	0.109547	0.227812
H10	H	0.906740	0.855173	0.808761
C15	C	0.177724	0.608983	0.727352
C16	C	0.681780	0.391633	0.229394
C17	C	0.093850	0.525079	0.651312
C18	C	0.595316	0.474711	0.152754
H11	H	0.937343	0.493231	0.673502
H12	H	0.437905	0.505201	0.175264
C19	C	0.216328	0.484270	0.550116
C20	C	0.715665	0.515656	0.050638
C21	C	0.866619	0.099319	0.466621
C22	C	0.363035	0.899720	0.965672
C23	C	0.134755	0.394474	0.470676
C24	C	0.632086	0.604172	0.969107
C25	C	0.270296	0.842653	0.574229
C26	C	0.195436	0.754406	0.666876
H13	H	0.267677	0.808569	0.474318
H14	H	0.152884	0.909094	0.579478
C27	C	-0.028833	0.715591	0.628883
H15	H	0.191837	0.785690	0.768053
H16	H	0.306560	0.685230	0.662958
H17	H	-0.145237	0.782427	0.633469
H18	H	-0.078661	0.652070	0.697237
H19	H	-0.030853	0.682264	0.528684
C28	C	0.461507	0.154929	0.342987
C29	C	0.359280	0.243557	0.424543
H20	H	0.502241	0.088041	0.410208
H21	H	0.610426	0.188240	0.301990
C30	C	0.511746	0.281141	0.533237
H22	H	0.319336	0.313165	0.361401
H23	H	0.211219	0.213027	0.469548
H24	H	0.660813	0.313698	0.491783
H25	H	0.433980	0.344964	0.590398
H26	H	0.553017	0.213856	0.599610
C31	C	0.039389	0.655029	0.839651
C32	C	0.140688	0.746800	0.919157
H27	H	-0.113267	0.685399	0.796235
H28	H	0.005485	0.589157	0.908722
C33	C	-0.008611	0.784762	1.025233
H29	H	0.292526	0.719290	0.966483
H30	H	0.173850	0.815470	0.854065
H31	H	-0.043069	0.718469	1.093467
H32	H	0.068411	0.850870	1.080953
H33	H	-0.161395	0.814364	0.981382
C34	C	0.544835	0.345740	0.342624
C35	C	0.648355	0.254995	0.422858
H34	H	0.510153	0.411936	0.411082
H35	H	0.392486	0.314374	0.299903
C36	C	0.500479	0.217101	0.529710
H36	H	0.682373	0.186024	0.358413
H37	H	0.799965	0.283526	0.469520
H38	H	0.347984	0.186497	0.486548
H39	H	0.579092	0.151740	0.585947
H40	H	0.465228	0.283712	0.597326

loop_
_geom_bond_atom_site_label_1
_geom_bond_atom_site_label_2
_geom_bond_distance
Ni1	O2	0.27172
Ni1	O4	0.26685
Ni1	O6	0.18814
Ni1	O8	0.19072
Ni1	N1	0.20577
Ni1	N3	0.20466
Ni2	O1	0.26865
Ni2	O3	0.26723
Ni2	O5	0.18782
Ni2	O7	0.19027
Ni2	N2	0.20571
Ni2	N4	0.20677
O1	C23	0.14891
O2	C24	0.14858
O3	C21	0.15074
O4	C22	0.15156
O5	C23	0.19286
O6	C24	0.19373
O7	C21	0.19493
O8	C22	0.19438
N1	C11	0.16023
N1	C13	0.20397
N2	C12	0.16107
N2	C14	0.20343
N3	C9	0.15806
N3	C15	0.20084
N4	C10	0.15739
N4	C16	0.20116
C1	H1	0.13241
C1	C3	0.21048
C1	C11	0.13833
C2	H2	0.13330
C2	C4	0.20965
C2	C12	0.13734
C3	C5	0.16595
C3	C21	0.14604
C4	C6	0.16711
C4	C22	0.14505
C5	H3	0.16446
C5	C13	0.14216
C6	H4	0.16396
C6	C14	0.14113
C7	H5	0.13032
C7	C9	0.13735
C7	C19	0.20650
C8	H6	0.12986
C8	C10	0.13863
C8	C20	0.20748
C9	H7	0.16000
C10	H8	0.16093
C11	C25	0.23514
C12	H9	0.16208
C13	H10	0.12652
C14	C28	0.18811
C15	C17	0.14091
C15	C31	0.18403
C16	C18	0.14231
C16	C34	0.18352
C17	H11	0.16125
C17	C19	0.16403
C18	H12	0.16191
C18	C20	0.16306
C19	C23	0.14501
C20	C24	0.14652
C25	C26	0.14824
C25	H13	0.10560
C25	H14	0.13501
C26	C27	0.23075
C26	H15	0.10596
C26	H16	0.13096
C27	H17	0.13431
C27	H18	0.10578
C27	H19	0.10561
C28	C29	0.15798
C28	H20	0.10321
C28	H21	0.15801
C29	C30	0.19098
C29	H22	0.10212
C29	H23	0.15773
C30	H24	0.15811
C30	H25	0.11571
C30	H26	0.10313
C31	C32	0.15813
C31	H27	0.16159
C31	H28	0.10129
C32	C33	0.18704
C32	H29	0.16140
C32	H30	0.10026
C33	H31	0.10118
C33	H32	0.11579
C33	H33	0.16169
C34	C35	0.15934
C34	H34	0.10135
C34	H35	0.16130
C35	C36	0.18634
C35	H36	0.10034
C35	H37	0.16117
C36	H38	0.16141
C36	H39	0.11668
C36	H40	0.10125
