data_NiPyC2_relax_NiPyC2_relax_aligned_CH2-CH2-CH3_NiPyC2_relax_aligned_CH2-CH2-CH3_NiPyC2_relax_aligned_CH2-CH2-CH3_NiPyC2_relax_aligned_CH2-CH2-CH3_NiPyC2_relax_aligned_CH2-CH2-CH3_NiPyC2_relax_aligned_CH2-CH2-CH3_NiPyC2_relax_aligned_CH2-CH2-CH3_NiPyC2_relax_aligned_CH2-CH2-CH3_PM
_symmetry_space_group_name_H-M	'P1'
_cell_length_a	12.505600
_cell_length_b	12.523400
_cell_length_c	10.276800
_cell_angle_alpha	90.000000
_cell_angle_beta	91.269000
_cell_angle_gamma	90.000000
_symmetry_Int_Tables_number 1

loop_
_symmetry_equiv_pos_as_xyz
'x,y,z'

loop_
_atom_site_label
_atom_site_type_symbol
_atom_site_fract_x
_atom_site_fract_y
_atom_site_fract_z
Ni1	Ni	0.247002	0.751486	0.836326
Ni2	Ni	0.499972	0.247999	0.339178
O1	O	0.122778	0.347689	0.382873
O2	O	0.371208	0.650977	0.881292
O3	O	0.377630	0.147507	0.377178
O4	O	0.125098	0.852352	0.876261
O5	O	0.473069	0.356160	0.482994
O6	O	0.221137	0.641415	0.979877
O7	O	0.028840	0.135158	0.481078
O8	O	0.276686	0.862758	0.979399
N1	N	0.308437	0.851253	0.704828
N2	N	0.060729	0.148857	0.206052
N3	N	0.186542	0.650310	0.705838
N4	N	0.438810	0.350928	0.208041
C1	C	0.288212	0.970050	0.521984
C2	C	0.038379	0.031106	0.022308
H1	H	0.237124	0.999575	0.443113
H2	H	0.486538	0.002692	0.943499
C3	C	0.390634	0.011770	0.546492
C4	C	0.140244	0.987744	0.046146
C5	C	0.451915	0.970202	0.650371
C6	C	0.202520	0.028353	0.149893
H3	H	0.282340	0.998665	0.172602
C7	C	0.208181	0.529704	0.526384
C8	C	0.458545	0.471409	0.027904
H4	H	0.258700	0.500895	0.449282
H5	H	0.008641	0.500397	0.950548
C9	C	0.245137	0.613331	0.606435
C10	C	0.496819	0.388677	0.108617
H6	H	0.322641	0.650506	0.592635
H7	H	0.074968	0.352851	0.095028
C11	C	0.249476	0.889206	0.603203
C12	C	0.001069	0.112232	0.104247
H8	H	0.170154	0.855123	0.588560
H9	H	0.422322	0.147732	0.089886
C13	C	0.407977	0.889383	0.727552
C14	C	0.159935	0.109547	0.227812
H10	H	0.453370	0.855173	0.808761
H11	H	0.206239	0.143103	0.308797
C15	C	0.088862	0.608983	0.727352
C16	C	0.340890	0.391633	0.229394
H12	H	0.043729	0.642944	0.806608
H13	H	0.296378	0.357526	0.309051
C17	C	0.046925	0.525079	0.651312
C18	C	0.297658	0.474711	0.152754
H14	H	0.468672	0.493231	0.673502
C19	C	0.108164	0.484270	0.550116
C20	C	0.357832	0.515656	0.050638
C21	C	0.433310	0.099319	0.466621
C22	C	0.181517	0.899720	0.965672
C23	C	0.067378	0.394474	0.470676
C24	C	0.316043	0.604172	0.969107
Ni3	Ni	0.747002	0.751486	0.836326
Ni4	Ni	0.999972	0.247999	0.339178
O9	O	0.622779	0.347689	0.382873
O10	O	0.871208	0.650977	0.881292
O11	O	0.877630	0.147507	0.377178
O12	O	0.625098	0.852352	0.876261
O13	O	0.973069	0.356160	0.482994
O14	O	0.721137	0.641415	0.979877
O15	O	0.528840	0.135158	0.481078
O16	O	0.776686	0.862758	0.979399
N5	N	0.808437	0.851253	0.704828
N6	N	0.560729	0.148857	0.206052
N7	N	0.686543	0.650310	0.705838
N8	N	0.938810	0.350928	0.208041
C25	C	0.788212	0.970050	0.521984
C26	C	0.538379	0.031106	0.022308
H15	H	0.737124	0.999575	0.443113
C27	C	0.890634	0.011770	0.546492
C28	C	0.640244	0.987744	0.046146
C29	C	0.951915	0.970202	0.650371
C30	C	0.702520	0.028353	0.149893
C31	C	0.708182	0.529704	0.526384
C32	C	0.958546	0.471409	0.027904
H16	H	0.508641	0.500397	0.950548
C33	C	0.745137	0.613331	0.606435
C34	C	0.996819	0.388677	0.108617
H17	H	0.822641	0.650506	0.592635
H18	H	0.574968	0.352851	0.095028
C35	C	0.749476	0.889206	0.603203
C36	C	0.501069	0.112232	0.104247
H19	H	0.670154	0.855123	0.588560
H20	H	0.922322	0.147732	0.089886
C37	C	0.907977	0.889383	0.727552
C38	C	0.659934	0.109547	0.227812
H21	H	0.953370	0.855173	0.808761
H22	H	0.706240	0.143103	0.308797
C39	C	0.588862	0.608983	0.727352
C40	C	0.840890	0.391633	0.229394
H23	H	0.543729	0.642944	0.806608
H24	H	0.796378	0.357526	0.309051
C41	C	0.546925	0.525079	0.651312
C42	C	0.797658	0.474711	0.152754
C43	C	0.608164	0.484270	0.550116
C44	C	0.857832	0.515656	0.050638
C45	C	0.933310	0.099319	0.466621
C46	C	0.681517	0.899720	0.965672
C47	C	0.567377	0.394474	0.470676
C48	C	0.816043	0.604172	0.969107
C49	C	0.565717	0.011535	0.680785
C50	C	0.625764	0.960199	0.797118
H25	H	0.560260	0.098591	0.700748
H26	H	0.614606	0.998000	0.593258
C51	C	0.737090	0.008585	0.815968
H27	H	0.634822	0.873013	0.780178
H28	H	0.580508	0.973541	0.887599
H29	H	0.785351	0.995448	0.727929
H30	H	0.778512	0.970130	0.900389
H31	H	0.731197	0.095678	0.835031
C52	C	0.967138	0.991198	0.908030
C53	C	0.856790	0.044250	0.890650
H32	H	0.011160	0.004411	0.816612
H33	H	0.953425	0.904285	0.922050
C54	C	0.795083	0.997204	0.774321
H34	H	0.809055	0.031296	0.979270
H35	H	0.866756	0.131359	0.873901
H36	H	0.782214	0.910240	0.788444
H37	H	0.715934	0.036883	0.764114
H38	H	0.839744	0.010006	0.683386
C55	C	0.935531	0.479536	0.679754
C56	C	0.875421	0.530390	0.793119
H39	H	0.945011	0.393166	0.702196
H40	H	0.884549	0.489420	0.590568
C57	C	0.766543	0.477716	0.810316
H41	H	0.862391	0.616792	0.773601
H42	H	0.922817	0.520599	0.885157
H43	H	0.716197	0.487220	0.720645
H44	H	0.725024	0.515910	0.892609
H45	H	0.776444	0.391311	0.831871
C58	C	0.185894	0.519177	0.181720
C59	C	0.126980	0.468339	0.296039
H46	H	0.194517	0.605778	0.203307
H47	H	0.134558	0.508200	0.093024
C60	C	0.017624	0.519907	0.313636
H48	H	0.114824	0.381684	0.277406
H49	H	0.174747	0.479200	0.387617
H50	H	0.966916	0.509314	0.224446
H51	H	0.976986	0.481747	0.396615
H52	H	0.026662	0.606542	0.334330
C61	C	0.065717	0.011535	0.680785
C62	C	0.125764	0.960199	0.797118
H53	H	0.060260	0.098591	0.700748
H54	H	0.114606	0.998000	0.593258
C63	C	0.237090	0.008585	0.815968
H55	H	0.134822	0.873013	0.780178
H56	H	0.080508	0.973541	0.887599
H57	H	0.285351	0.995448	0.727929
H58	H	0.278512	0.970130	0.900389
H59	H	0.231197	0.095678	0.835031
C64	C	0.815930	0.985571	0.179341
C65	C	0.877129	0.035869	0.295486
H60	H	0.864567	0.998751	0.091524
H61	H	0.809506	0.898534	0.198976
C66	C	0.987930	0.986097	0.313363
H62	H	0.832141	0.022831	0.386235
H63	H	0.887165	0.122984	0.278849
H64	H	0.981068	0.899030	0.332103
H65	H	0.030203	0.023826	0.397666
H66	H	0.035929	0.998887	0.225034
C67	C	0.777524	0.489376	0.414480
C68	C	0.885972	0.544996	0.397189
H67	H	0.730823	0.499511	0.321993
H68	H	0.793951	0.403178	0.431349
C69	C	0.945984	0.497234	0.283251
H69	H	0.936306	0.535161	0.486927
H70	H	0.873216	0.631433	0.377642
H71	H	0.961571	0.410965	0.300212
H72	H	0.023783	0.538800	0.273058
H73	H	0.898667	0.506952	0.191250
C70	C	0.685894	0.519177	0.181720
C71	C	0.626980	0.468339	0.296039
H74	H	0.694517	0.605778	0.203307
H75	H	0.634558	0.508200	0.093024
C72	C	0.517624	0.519907	0.313636
H76	H	0.614824	0.381684	0.277406
H77	H	0.674747	0.479200	0.387617
H78	H	0.466916	0.509314	0.224446
H79	H	0.476986	0.481747	0.396615
H80	H	0.526662	0.606542	0.334330

loop_
_geom_bond_atom_site_label_1
_geom_bond_atom_site_label_2
_geom_bond_distance
Ni1	O2	0.16599
Ni1	O4	0.16318
Ni1	O6	0.18273
Ni1	O8	0.18366
Ni1	N1	0.17612
Ni1	N3	0.17584
Ni2	O3	0.16282
Ni2	O5	0.18195
Ni2	N4	0.17757
Ni2	O9	0.16410
Ni2	O15	0.18358
Ni2	N6	0.17676
O1	C23	0.11387
O1	Ni4	0.16410
O2	C24	0.11378
O3	C21	0.11585
O4	C22	0.11585
O5	C47	0.10254
O6	C24	0.10252
O7	Ni4	0.18358
O7	C45	0.10305
O8	C22	0.10301
N1	C11	0.12347
N1	C13	0.10899
N2	C12	0.12355
N2	C14	0.10891
N2	Ni4	0.17676
N3	C9	0.12117
N3	C15	0.10822
N4	C10	0.12114
N4	C16	0.10817
C1	H1	0.09850
C1	C3	0.11328
C1	C11	0.12097
C2	C4	0.11325
C2	C12	0.12119
C2	C52	0.14045
H2	C26	0.09852
C3	C5	0.12757
C3	C21	0.12596
C4	C6	0.12764
C4	C22	0.12621
C5	C13	0.12008
C5	C49	0.12484
C6	H3	0.08814
C6	C14	0.12032
C7	H4	0.09658
C7	C9	0.12152
C7	C19	0.11239
C8	C10	0.12175
C8	C20	0.11233
C8	H16	0.09661
H5	C32	0.09661
C9	H6	0.08706
C10	H18	0.08704
H7	C34	0.08704
C11	H8	0.08757
C12	H20	0.08756
H9	C36	0.08756
C13	H10	0.09912
C14	H11	0.09914
C15	H12	0.09732
C15	C17	0.12075
C16	H13	0.09742
C16	C18	0.12102
C17	C19	0.12512
C17	C55	0.12366
C18	C20	0.12540
C18	C58	0.12372
H14	C41	0.08735
C19	C23	0.12664
C20	C24	0.12739
C21	O15	0.10305
C23	O13	0.10254
Ni3	O10	0.16599
Ni3	O12	0.16318
Ni3	O14	0.18273
Ni3	O16	0.18366
Ni3	N5	0.17612
Ni3	N7	0.17584
Ni4	O11	0.16282
Ni4	O13	0.18195
Ni4	N8	0.17757
O9	C47	0.11387
O10	C48	0.11378
O11	C45	0.11585
O12	C46	0.11585
O14	C48	0.10252
O16	C46	0.10301
N5	C35	0.12347
N5	C37	0.10899
N6	C36	0.12355
N6	C38	0.10891
N7	C33	0.12117
N7	C39	0.10822
N8	C34	0.12114
N8	C40	0.10817
C25	H15	0.09850
C25	C27	0.11328
C25	C35	0.12097
C26	C28	0.11325
C26	C36	0.12119
C27	C29	0.12757
C27	C45	0.12596
C28	C30	0.12764
C28	C46	0.12621
C29	C37	0.12008
C29	C61	0.12484
C30	C38	0.12032
C30	C64	0.12474
C31	C33	0.12152
C31	C43	0.11239
C31	C67	0.13769
C32	C34	0.12175
C32	C44	0.11233
C33	H17	0.08706
C35	H19	0.08757
C37	H21	0.09912
C38	H22	0.09914
C39	H23	0.09732
C39	C41	0.12075
C40	H24	0.09742
C40	C42	0.12102
C41	C43	0.12512
C42	C44	0.12540
C42	C70	0.12372
C43	C47	0.12664
C44	C48	0.12739
C49	C50	0.14062
C49	H25	0.08948
C49	H26	0.10116
C50	C51	0.12284
C50	H27	0.08928
C50	H28	0.10204
C51	H29	0.10126
C51	H30	0.10159
C51	H31	0.08935
C52	C53	0.12367
C52	H32	0.10232
C52	H33	0.08910
C53	C54	0.13983
C53	H34	0.10149
C53	H35	0.08926
C54	H36	0.08904
C54	H37	0.08912
C54	H38	0.10212
C55	C56	0.13802
C55	H39	0.08974
C55	H40	0.10320
C56	C57	0.12217
C56	H41	0.08953
C56	H42	0.10399
C57	H43	0.10328
C57	H44	0.09977
C57	H45	0.08960
C58	C59	0.13829
C58	H46	0.08967
C58	H47	0.10307
C59	C60	0.12218
C59	H48	0.08947
C59	H49	0.10386
C60	H50	0.10314
C60	H51	0.09997
C60	H52	0.08953
C61	C62	0.14062
C61	H53	0.08948
C61	H54	0.10116
C62	C63	0.12284
C62	H55	0.08928
C62	H56	0.10204
C63	H57	0.10126
C63	H58	0.10159
C63	H59	0.08935
C64	C65	0.14059
C64	H60	0.10125
C64	H61	0.08946
C65	C66	0.12277
C65	H62	0.10212
C65	H63	0.08926
C66	H64	0.08933
C66	H65	0.10158
C66	H66	0.10134
C67	C68	0.12310
C67	H67	0.10410
C67	H68	0.08936
C68	C69	0.13735
C68	H69	0.10336
C68	H70	0.08953
C69	H71	0.08929
C69	H72	0.08879
C69	H73	0.10391
C70	C71	0.13829
C70	H74	0.08967
C70	H75	0.10307
C71	C72	0.12218
C71	H76	0.08947
C71	H77	0.10386
C72	H78	0.10314
C72	H79	0.09997
C72	H80	0.08953
