data_NiPyC2_relax_NiPyC2_relax_aligned_N-2CH3_NiPyC2_relax_aligned_N-2CH3_NiPyC2_relax_aligned_N-2CH3_NiPyC2_relax_aligned_N-2CH3_PM
_symmetry_space_group_name_H-M	'P1'
_cell_length_a	6.252800
_cell_length_b	12.523400
_cell_length_c	10.276800
_cell_angle_alpha	90.000000
_cell_angle_beta	91.269000
_cell_angle_gamma	90.000000
_symmetry_Int_Tables_number 1

loop_
_symmetry_equiv_pos_as_xyz
'x,y,z'

loop_
_atom_site_label
_atom_site_type_symbol
_atom_site_fract_x
_atom_site_fract_y
_atom_site_fract_z
Ni1	Ni	0.494004	0.751486	0.836326
Ni2	Ni	0.999945	0.247999	0.339178
O1	O	0.245557	0.347689	0.382873
O2	O	0.742416	0.650977	0.881292
O3	O	0.755261	0.147507	0.377178
O4	O	0.250196	0.852352	0.876261
O5	O	0.946138	0.356160	0.482994
O6	O	0.442275	0.641415	0.979877
O7	O	0.057679	0.135158	0.481078
O8	O	0.553372	0.862758	0.979399
N1	N	0.616875	0.851253	0.704828
N2	N	0.121459	0.148857	0.206052
N3	N	0.373085	0.650310	0.705838
N4	N	0.877620	0.350928	0.208041
C1	C	0.576425	0.970050	0.521984
C2	C	0.076758	0.031106	0.022308
H1	H	0.973076	0.002692	0.943499
C3	C	0.781269	0.011770	0.546492
C4	C	0.280489	0.987744	0.046146
C5	C	0.903830	0.970202	0.650371
C6	C	0.405041	0.028353	0.149893
H2	H	0.064125	0.998805	0.673520
C7	C	0.416363	0.529704	0.526384
C8	C	0.917091	0.471409	0.027904
C9	C	0.490274	0.613331	0.606435
C10	C	0.993638	0.388677	0.108617
H3	H	0.645282	0.650506	0.592635
H4	H	0.149937	0.352851	0.095028
C11	C	0.498952	0.889206	0.603203
C12	C	0.002139	0.112232	0.104247
H5	H	0.340308	0.855123	0.588560
H6	H	0.844645	0.147732	0.089886
C13	C	0.815954	0.889383	0.727552
C14	C	0.319869	0.109547	0.227812
H7	H	0.906740	0.855173	0.808761
H8	H	0.412479	0.143103	0.308797
C15	C	0.177724	0.608983	0.727352
C16	C	0.681780	0.391633	0.229394
H9	H	0.087458	0.642944	0.806608
H10	H	0.592757	0.357526	0.309051
C17	C	0.093850	0.525079	0.651312
C18	C	0.595316	0.474711	0.152754
H11	H	0.937343	0.493231	0.673502
H12	H	0.437905	0.505201	0.175264
C19	C	0.216328	0.484270	0.550116
C20	C	0.715665	0.515656	0.050638
C21	C	0.866619	0.099319	0.466621
C22	C	0.363035	0.899720	0.965672
C23	C	0.134755	0.394474	0.470676
C24	C	0.632086	0.604172	0.969107
N5	N	0.432844	0.008444	0.418398
C25	C	0.295227	0.935214	0.345409
H13	H	0.329193	0.850412	0.369331
H14	H	0.322207	0.945198	0.239680
H15	H	0.124779	0.952454	0.365315
C26	C	0.401601	0.122037	0.395586
H16	H	0.499726	0.171814	0.463350
H17	H	0.232007	0.143077	0.412684
H18	H	0.437175	0.142256	0.293087
N6	N	0.617396	0.988690	0.185547
C27	C	0.785061	0.060831	0.231405
H19	H	0.737385	0.145938	0.223046
H20	H	0.929000	0.050177	0.171390
H21	H	0.827824	0.043061	0.334639
C28	C	0.661607	0.874813	0.192737
H22	H	0.518972	0.825928	0.166733
H23	H	0.708051	0.853227	0.294286
H24	H	0.796899	0.853983	0.129268
N7	N	0.551576	0.497729	0.419405
C29	C	0.783101	0.493574	0.435611
H25	H	0.836485	0.506716	0.538045
H26	H	0.841196	0.413337	0.407005
H27	H	0.858212	0.554716	0.373021
C30	C	0.463220	0.482286	0.288671
H28	H	0.287959	0.496100	0.283518
H29	H	0.535820	0.540980	0.221756
H30	H	0.501597	0.400961	0.252946
N8	N	0.052113	0.503862	0.920796
C31	C	0.283420	0.509801	0.937397
H31	H	0.336663	0.497576	0.040025
H32	H	0.339273	0.590309	0.908257
H33	H	0.360670	0.448900	0.875444
C32	C	0.963977	0.517985	0.789786
H34	H	0.789161	0.502858	0.784419
H35	H	0.038666	0.459492	0.723484
H36	H	0.000118	0.599399	0.753482

loop_
_geom_bond_atom_site_label_1
_geom_bond_atom_site_label_2
_geom_bond_distance
Ni1	O2	0.27172
Ni1	O4	0.26685
Ni1	O6	0.18814
Ni1	O8	0.19072
Ni1	N1	0.20577
Ni1	N3	0.20466
Ni2	O1	0.26865
Ni2	O3	0.26723
Ni2	O5	0.18782
Ni2	O7	0.19027
Ni2	N2	0.20571
Ni2	N4	0.20677
O1	C23	0.14891
O2	C24	0.14858
O3	C21	0.15074
O4	C22	0.15156
O5	C23	0.19286
O6	C24	0.19373
O7	C21	0.19493
O8	C22	0.19438
N1	C11	0.16023
N1	C13	0.20397
N2	C12	0.16107
N2	C14	0.20343
N3	C9	0.15806
N3	C15	0.20084
N4	C10	0.15739
N4	C16	0.20116
C1	C3	0.21048
C1	C11	0.13833
C1	N5	0.18116
C2	H1	0.13330
C2	C4	0.20965
C2	C12	0.13734
C3	C5	0.16595
C3	C21	0.14604
C4	C6	0.16711
C4	C22	0.14505
C5	H2	0.16446
C5	C13	0.14216
C6	C14	0.14113
C6	N6	0.21895
C7	C9	0.13735
C7	C19	0.20650
C7	N7	0.17536
C8	C10	0.13863
C8	C20	0.20748
C8	N8	0.17537
C9	H3	0.16000
C10	H4	0.16093
C11	H5	0.16292
C12	H6	0.16208
C13	H7	0.12652
C14	H8	0.12752
C15	H9	0.12483
C15	C17	0.14091
C16	H10	0.12423
C16	C18	0.14231
C17	H11	0.16125
C17	C19	0.16403
C18	H12	0.16191
C18	C20	0.16306
C19	C23	0.14501
C20	C24	0.14652
N5	C25	0.17213
N5	C26	0.12000
C25	H13	0.09443
C25	H14	0.10957
C25	H15	0.17247
C26	H16	0.12922
C26	H17	0.17175
C26	H18	0.11037
N6	C27	0.18820
N6	C28	0.12237
C27	H19	0.09791
C27	H20	0.15631
C27	H21	0.11314
C28	H22	0.15301
C28	H23	0.11373
C28	H24	0.15088
N7	C29	0.23213
N7	C30	0.15855
C29	H25	0.11626
C29	H26	0.10311
C29	H27	0.11531
C30	H28	0.17588
C30	H29	0.11486
C30	H30	0.09676
N8	C31	0.23198
N8	C32	0.15853
C31	H31	0.11626
C31	H32	0.10223
C31	H33	0.11625
C32	H34	0.17555
C32	H35	0.11574
C32	H36	0.09619
