data_NiPyC2_relax_NiPyC2_relax_aligned_O-CH3_NiPyC2_relax_aligned_O-CH3_NiPyC2_relax_aligned_O-CH3_NiPyC2_relax_aligned_O-CH3_PM
_symmetry_space_group_name_H-M	'P1'
_cell_length_a	6.252800
_cell_length_b	12.523400
_cell_length_c	10.276800
_cell_angle_alpha	90.000000
_cell_angle_beta	91.269000
_cell_angle_gamma	90.000000
_symmetry_Int_Tables_number 1

loop_
_symmetry_equiv_pos_as_xyz
'x,y,z'

loop_
_atom_site_label
_atom_site_type_symbol
_atom_site_fract_x
_atom_site_fract_y
_atom_site_fract_z
Ni1	Ni	0.494004	0.751486	0.836326
Ni2	Ni	0.999945	0.247999	0.339178
O1	O	0.245557	0.347689	0.382873
O2	O	0.742416	0.650977	0.881292
O3	O	0.755261	0.147507	0.377178
O4	O	0.250196	0.852352	0.876261
O5	O	0.946138	0.356160	0.482994
O6	O	0.442275	0.641415	0.979877
O7	O	0.057679	0.135158	0.481078
O8	O	0.553372	0.862758	0.979399
N1	N	0.616875	0.851253	0.704828
N2	N	0.121459	0.148857	0.206052
N3	N	0.373085	0.650310	0.705838
N4	N	0.877620	0.350928	0.208041
C1	C	0.576425	0.970050	0.521984
C2	C	0.076758	0.031106	0.022308
H1	H	0.973076	0.002692	0.943499
C3	C	0.781269	0.011770	0.546492
C4	C	0.280489	0.987744	0.046146
C5	C	0.903830	0.970202	0.650371
C6	C	0.405041	0.028353	0.149893
H2	H	0.064125	0.998805	0.673520
C7	C	0.416363	0.529704	0.526384
C8	C	0.917091	0.471409	0.027904
H3	H	0.517401	0.500895	0.449282
C9	C	0.490274	0.613331	0.606435
C10	C	0.993638	0.388677	0.108617
H4	H	0.645282	0.650506	0.592635
H5	H	0.149937	0.352851	0.095028
C11	C	0.498952	0.889206	0.603203
C12	C	0.002139	0.112232	0.104247
H6	H	0.340308	0.855123	0.588560
H7	H	0.844645	0.147732	0.089886
C13	C	0.815954	0.889383	0.727552
C14	C	0.319869	0.109547	0.227812
H8	H	0.906740	0.855173	0.808761
H9	H	0.412479	0.143103	0.308797
C15	C	0.177724	0.608983	0.727352
C16	C	0.681780	0.391633	0.229394
H10	H	0.087458	0.642944	0.806608
H11	H	0.592757	0.357526	0.309051
C17	C	0.093850	0.525079	0.651312
C18	C	0.595316	0.474711	0.152754
H12	H	0.437905	0.505201	0.175264
C19	C	0.216328	0.484270	0.550116
C20	C	0.715665	0.515656	0.050638
C21	C	0.866619	0.099319	0.466621
C22	C	0.363035	0.899720	0.965672
C23	C	0.134755	0.394474	0.470676
C24	C	0.632086	0.604172	0.969107
O9	O	0.455307	0.008448	0.419785
C25	C	0.251931	0.974606	0.384912
H13	H	0.195282	0.020387	0.298418
H14	H	0.140137	0.989314	0.465503
H15	H	0.253509	0.888430	0.359306
O10	O	0.605803	0.988785	0.173639
C26	C	0.744395	0.021561	0.272125
H16	H	0.894739	0.974921	0.266670
H17	H	0.783431	0.107548	0.260735
H18	H	0.672945	0.007001	0.368538
O11	O	0.896662	0.483020	0.674211
C27	C	0.760517	0.515757	0.770294
H19	H	0.612771	0.466792	0.764775
H20	H	0.715806	0.600858	0.755864
H21	H	0.837126	0.504288	0.867860
O12	O	0.036167	0.509299	0.927646
C28	C	0.236239	0.473101	0.894556
H22	H	0.291817	0.519050	0.809448
H23	H	0.352135	0.485397	0.976685
H24	H	0.228916	0.387269	0.867522

loop_
_geom_bond_atom_site_label_1
_geom_bond_atom_site_label_2
_geom_bond_distance
Ni1	O2	0.27172
Ni1	O4	0.26685
Ni1	O6	0.18814
Ni1	O8	0.19072
Ni1	N1	0.20577
Ni1	N3	0.20466
Ni2	O1	0.26865
Ni2	O3	0.26723
Ni2	O5	0.18782
Ni2	O7	0.19027
Ni2	N2	0.20571
Ni2	N4	0.20677
O1	C23	0.14891
O2	C24	0.14858
O3	C21	0.15074
O4	C22	0.15156
O5	C23	0.19286
O6	C24	0.19373
O7	C21	0.19493
O8	C22	0.19438
N1	C11	0.16023
N1	C13	0.20397
N2	C12	0.16107
N2	C14	0.20343
N3	C9	0.15806
N3	C15	0.20084
N4	C10	0.15739
N4	C16	0.20116
C1	C3	0.21048
C1	C11	0.13833
C1	O9	0.16306
C2	H1	0.13330
C2	C4	0.20965
C2	C12	0.13734
C3	C5	0.16595
C3	C21	0.14604
C4	C6	0.16711
C4	C22	0.14505
C5	H2	0.16446
C5	C13	0.14216
C6	C14	0.14113
C6	O10	0.20600
C7	H3	0.13032
C7	C9	0.13735
C7	C19	0.20650
C8	C10	0.13863
C8	C20	0.20748
C8	O12	0.16021
C9	H4	0.16000
C10	H5	0.16093
C11	H6	0.16292
C12	H7	0.16208
C13	H8	0.12652
C14	H9	0.12752
C15	H10	0.12483
C15	C17	0.14091
C16	H11	0.12423
C16	C18	0.14231
C17	C19	0.16403
C17	O11	0.20292
C18	H12	0.16191
C18	C20	0.16306
C19	C23	0.14501
C20	C24	0.14652
O9	C25	0.20910
C25	H13	0.11308
C25	H14	0.13860
C25	H15	0.08991
O10	C26	0.17315
C26	H16	0.15751
C26	H17	0.09512
C26	H18	0.12088
O11	C27	0.16982
C27	H19	0.15575
C27	H20	0.09721
C27	H21	0.12458
O12	C28	0.20600
C28	H22	0.11155
C28	H23	0.14258
C28	H24	0.09029
