data_NiPyC2_relax_NiPyC2_relax_aligned_C-3CH3_NiPyC2_relax_aligned_C-3CH3_NiPyC2_relax_aligned_C-3CH3_NiPyC2_relax_aligned_C-3CH3_PM
_symmetry_space_group_name_H-M	'P1'
_cell_length_a	6.252800
_cell_length_b	12.523400
_cell_length_c	10.276800
_cell_angle_alpha	90.000000
_cell_angle_beta	91.269000
_cell_angle_gamma	90.000000
_symmetry_Int_Tables_number 1

loop_
_symmetry_equiv_pos_as_xyz
'x,y,z'

loop_
_atom_site_label
_atom_site_type_symbol
_atom_site_fract_x
_atom_site_fract_y
_atom_site_fract_z
Ni1	Ni	0.494004	0.751486	0.836326
Ni2	Ni	0.999945	0.247999	0.339178
O1	O	0.245557	0.347689	0.382873
O2	O	0.742416	0.650977	0.881292
O3	O	0.755261	0.147507	0.377178
O4	O	0.250196	0.852352	0.876261
O5	O	0.946138	0.356160	0.482994
O6	O	0.442275	0.641415	0.979877
O7	O	0.057679	0.135158	0.481078
O8	O	0.553372	0.862758	0.979399
N1	N	0.616875	0.851253	0.704828
N2	N	0.121459	0.148857	0.206052
N3	N	0.373085	0.650310	0.705838
N4	N	0.877620	0.350928	0.208041
C1	C	0.576425	0.970050	0.521984
C2	C	0.076758	0.031106	0.022308
H1	H	0.474249	0.999575	0.443113
H2	H	0.973076	0.002692	0.943499
C3	C	0.781269	0.011770	0.546492
C4	C	0.280489	0.987744	0.046146
C5	C	0.903830	0.970202	0.650371
C6	C	0.405041	0.028353	0.149893
H3	H	0.064125	0.998805	0.673520
H4	H	0.564681	0.998665	0.172602
C7	C	0.416363	0.529704	0.526384
C8	C	0.917091	0.471409	0.027904
H5	H	0.517401	0.500895	0.449282
H6	H	0.017282	0.500397	0.950548
C9	C	0.490274	0.613331	0.606435
C10	C	0.993638	0.388677	0.108617
H7	H	0.645282	0.650506	0.592635
C11	C	0.498952	0.889206	0.603203
C12	C	0.002139	0.112232	0.104247
H8	H	0.844645	0.147732	0.089886
C13	C	0.815954	0.889383	0.727552
C14	C	0.319869	0.109547	0.227812
H9	H	0.906740	0.855173	0.808761
C15	C	0.177724	0.608983	0.727352
C16	C	0.681780	0.391633	0.229394
H10	H	0.592757	0.357526	0.309051
C17	C	0.093850	0.525079	0.651312
C18	C	0.595316	0.474711	0.152754
H11	H	0.937343	0.493231	0.673502
H12	H	0.437905	0.505201	0.175264
C19	C	0.216328	0.484270	0.550116
C20	C	0.715665	0.515656	0.050638
C21	C	0.866619	0.099319	0.466621
C22	C	0.363035	0.899720	0.965672
C23	C	0.134755	0.394474	0.470676
C24	C	0.632086	0.604172	0.969107
C_fg1	C_fg	0.264001	0.835854	0.581155
C_fg2	C_fg	0.212834	0.747816	0.683274
H_fg1	H_fg	0.328091	0.680343	0.678962
H_fg2	H_fg	0.050984	0.713303	0.664955
H_fg3	H_fg	0.213600	0.780615	0.783846
C_fg3	C_fg	0.085536	0.920316	0.599154
H_fg4	H_fg	0.094725	0.952369	0.700016
H_fg5	H_fg	0.924942	0.883684	0.584029
H_fg6	H_fg	0.090360	0.990749	0.536360
C_fg4	C_fg	0.249753	0.776500	0.448721
H_fg7	H_fg	0.370130	0.711177	0.447729
H_fg8	H_fg	0.281032	0.823766	0.361695
H_fg9	H_fg	0.088934	0.740065	0.433802
C_fg5	C_fg	0.454166	0.161757	0.349471
C_fg6	C_fg	0.327898	0.250351	0.421886
H_fg10	H_fg	0.286730	0.318267	0.356264
H_fg11	H_fg	0.424700	0.284046	0.504238
H_fg12	H_fg	0.178828	0.218322	0.464200
C_fg7	C_fg	0.501740	0.076694	0.456001
H_fg13	H_fg	0.348668	0.045448	0.493759
H_fg14	H_fg	0.593359	0.112538	0.539026
H_fg15	H_fg	0.590346	0.005809	0.426211
C_fg8	C_fg	0.656500	0.220041	0.301188
H_fg16	H_fg	0.608214	0.285853	0.234126
H_fg17	H_fg	0.770037	0.172247	0.246460
H_fg18	H_fg	0.747908	0.255688	0.384426
C_fg9	C_fg	0.046667	0.662094	0.845975
C_fg10	C_fg	0.171573	0.753943	0.916559
H_fg19	H_fg	0.205932	0.820886	0.849060
H_fg20	H_fg	0.076886	0.788170	0.996923
H_fg21	H_fg	0.324371	0.724885	0.961252
C_fg11	C_fg	0.008779	0.578850	0.954888
H_fg22	H_fg	0.165320	0.550526	0.995034
H_fg23	H_fg	0.919190	0.615308	0.035899
H_fg24	H_fg	0.922603	0.506159	0.926669
C_fg12	C_fg	0.838907	0.716540	0.793972
H_fg25	H_fg	0.880429	0.781443	0.725165
H_fg26	H_fg	0.725366	0.666029	0.739830
H_fg27	H_fg	0.749549	0.752809	0.875203
C_fg13	C_fg	0.225128	0.332742	0.088649
C_fg14	C_fg	0.275772	0.242850	0.189826
H_fg28	H_fg	0.280359	0.274400	0.291005
H_fg29	H_fg	0.435239	0.206600	0.172969
H_fg30	H_fg	0.157050	0.176868	0.182781
C_fg15	C_fg	0.231539	0.274877	0.955291
H_fg31	H_fg	0.107926	0.211064	0.951538
H_fg32	H_fg	0.390006	0.236676	0.941786
H_fg33	H_fg	0.199344	0.323584	0.868717
C_fg16	C_fg	0.408393	0.414767	0.110514
H_fg34	H_fg	0.404528	0.445670	0.211860
H_fg35	H_fg	0.404688	0.486008	0.048945
H_fg36	H_fg	0.566619	0.376374	0.096795

loop_
_geom_bond_atom_site_label_1
_geom_bond_atom_site_label_2
_geom_bond_distance
Ni1	O2	0.27172
Ni1	O4	0.26685
Ni1	O6	0.18814
Ni1	O8	0.19072
Ni1	N1	0.20577
Ni1	N3	0.20466
Ni2	O1	0.26865
Ni2	O3	0.26723
Ni2	O5	0.18782
Ni2	O7	0.19027
Ni2	N2	0.20571
Ni2	N4	0.20677
O1	C23	0.14891
O2	C24	0.14858
O3	C21	0.15074
O4	C22	0.15156
O5	C23	0.19286
O6	C24	0.19373
O7	C21	0.19493
O8	C22	0.19438
N1	C11	0.16023
N1	C13	0.20397
N2	C12	0.16107
N2	C14	0.20343
N3	C9	0.15806
N3	C15	0.20084
N4	C10	0.15739
N4	C16	0.20116
C1	H1	0.13241
C1	C3	0.21048
C1	C11	0.13833
C2	H2	0.13330
C2	C4	0.20965
C2	C12	0.13734
C3	C5	0.16595
C3	C21	0.14604
C4	C6	0.16711
C4	C22	0.14505
C5	H3	0.16446
C5	C13	0.14216
C6	H4	0.16396
C6	C14	0.14113
C7	H5	0.13032
C7	C9	0.13735
C7	C19	0.20650
C8	H6	0.12986
C8	C10	0.13863
C8	C20	0.20748
C9	H7	0.16000
C10	C_fg13	0.23899
C11	C_fg1	0.24194
C12	H8	0.16208
C13	H9	0.12652
C14	C_fg5	0.18858
C15	C17	0.14091
C15	C_fg9	0.18458
C16	H10	0.12423
C16	C18	0.14231
C17	H11	0.16125
C17	C19	0.16403
C18	H12	0.16191
C18	C20	0.16306
C19	C23	0.14501
C20	C24	0.14652
C_fg1	C_fg2	0.14421
C_fg1	C_fg3	0.19826
C_fg1	C_fg4	0.14582
C_fg2	H_fg1	0.13362
C_fg2	H_fg2	0.16650
C_fg2	H_fg3	0.10579
H_fg1	H_fg2	0.27941
H_fg1	H_fg3	0.18483
H_fg2	H_fg3	0.21239
C_fg3	H_fg4	0.10623
C_fg3	H_fg5	0.16541
C_fg3	H_fg6	0.09448
H_fg4	H_fg5	0.21679
H_fg4	H_fg6	0.16815
H_fg5	H_fg6	0.20273
C_fg4	H_fg7	0.13696
C_fg4	H_fg8	0.10386
C_fg4	H_fg9	0.16557
H_fg7	H_fg8	0.16738
H_fg7	H_fg9	0.28302
H_fg8	H_fg9	0.22160
C_fg5	C_fg6	0.17040
C_fg5	C_fg7	0.14439
C_fg5	C_fg8	0.21603
C_fg6	H_fg10	0.10302
C_fg6	H_fg11	0.13148
C_fg6	H_fg12	0.15823
H_fg10	H_fg11	0.20519
H_fg10	H_fg12	0.18243
H_fg11	H_fg12	0.25763
C_fg7	H_fg13	0.16073
C_fg7	H_fg14	0.12873
C_fg7	H_fg15	0.11732
H_fg13	H_fg14	0.25773
H_fg13	H_fg15	0.25405
H_fg14	H_fg15	0.15533
C_fg8	H_fg16	0.10564
C_fg8	H_fg17	0.13480
C_fg8	H_fg18	0.12866
H_fg16	H_fg17	0.19810
H_fg16	H_fg18	0.20740
H_fg17	H_fg18	0.16275
C_fg9	C_fg10	0.17035
C_fg9	C_fg11	0.14222
C_fg9	C_fg12	0.22098
C_fg10	H_fg19	0.10108
C_fg10	H_fg20	0.12882
C_fg10	H_fg21	0.16183
H_fg19	H_fg20	0.19896
H_fg19	H_fg21	0.18929
H_fg20	H_fg21	0.25793
C_fg11	H_fg22	0.16407
C_fg11	H_fg23	0.12617
C_fg11	H_fg24	0.11622
H_fg22	H_fg23	0.25777
H_fg22	H_fg24	0.25603
H_fg23	H_fg24	0.15446
C_fg12	H_fg25	0.10330
C_fg12	H_fg26	0.13555
C_fg12	H_fg27	0.12609
H_fg25	H_fg26	0.19386
H_fg25	H_fg27	0.20115
H_fg26	H_fg27	0.16261
C_fg13	C_fg14	0.14451
C_fg14	H_fg28	0.10608
