data_NiPyC2_relax_NiPyC2_relax_aligned_CH2-NH2_NiPyC2_relax_aligned_CH2-NH2_NiPyC2_relax_aligned_CH2-NH2_NiPyC2_relax_aligned_CH2-NH2_PM
_symmetry_space_group_name_H-M	'P1'
_cell_length_a	6.252800
_cell_length_b	12.523400
_cell_length_c	10.276800
_cell_angle_alpha	90.000000
_cell_angle_beta	91.269000
_cell_angle_gamma	90.000000
_symmetry_Int_Tables_number 1

loop_
_symmetry_equiv_pos_as_xyz
'x,y,z'

loop_
_atom_site_label
_atom_site_type_symbol
_atom_site_fract_x
_atom_site_fract_y
_atom_site_fract_z
Ni1	Ni	0.494004	0.751486	0.836326
Ni2	Ni	0.999945	0.247999	0.339178
O1	O	0.245557	0.347689	0.382873
O2	O	0.742416	0.650977	0.881292
O3	O	0.755261	0.147507	0.377178
O4	O	0.250196	0.852352	0.876261
O5	O	0.946138	0.356160	0.482994
O6	O	0.442275	0.641415	0.979877
O7	O	0.057679	0.135158	0.481078
O8	O	0.553372	0.862758	0.979399
N1	N	0.616875	0.851253	0.704828
N2	N	0.121459	0.148857	0.206052
N3	N	0.373085	0.650310	0.705838
N4	N	0.877620	0.350928	0.208041
C1	C	0.576425	0.970050	0.521984
C2	C	0.076758	0.031106	0.022308
H1	H	0.973076	0.002692	0.943499
C3	C	0.781269	0.011770	0.546492
C4	C	0.280489	0.987744	0.046146
C5	C	0.903830	0.970202	0.650371
C6	C	0.405041	0.028353	0.149893
H2	H	0.064125	0.998805	0.673520
C7	C	0.416363	0.529704	0.526384
C8	C	0.917091	0.471409	0.027904
H3	H	0.017282	0.500397	0.950548
C9	C	0.490274	0.613331	0.606435
C10	C	0.993638	0.388677	0.108617
H4	H	0.645282	0.650506	0.592635
H5	H	0.149937	0.352851	0.095028
C11	C	0.498952	0.889206	0.603203
C12	C	0.002139	0.112232	0.104247
H6	H	0.340308	0.855123	0.588560
H7	H	0.844645	0.147732	0.089886
C13	C	0.815954	0.889383	0.727552
C14	C	0.319869	0.109547	0.227812
H8	H	0.906740	0.855173	0.808761
H9	H	0.412479	0.143103	0.308797
C15	C	0.177724	0.608983	0.727352
C16	C	0.681780	0.391633	0.229394
H10	H	0.087458	0.642944	0.806608
H11	H	0.592757	0.357526	0.309051
C17	C	0.093850	0.525079	0.651312
C18	C	0.595316	0.474711	0.152754
H12	H	0.937343	0.493231	0.673502
C19	C	0.216328	0.484270	0.550116
C20	C	0.715665	0.515656	0.050638
C21	C	0.866619	0.099319	0.466621
C22	C	0.363035	0.899720	0.965672
C23	C	0.134755	0.394474	0.470676
C24	C	0.632086	0.604172	0.969107
C25	C	0.434560	0.010977	0.408545
N5	N	0.227717	0.956983	0.396691
H13	H	0.520014	0.999771	0.315740
H14	H	0.404368	0.097446	0.424141
H15	H	0.252714	0.877840	0.368100
H16	H	0.138000	0.993700	0.322177
C26	C	0.631592	0.986529	0.179923
N6	N	0.735513	0.037125	0.292878
H17	H	0.624127	0.899095	0.198348
H18	H	0.731393	0.001933	0.093753
H19	H	0.656340	0.013787	0.376907
H20	H	0.892093	0.008244	0.301588
C27	C	0.555712	0.490354	0.414870
N7	N	0.760454	0.546041	0.406384
H21	H	0.588949	0.403740	0.428240
H22	H	0.465550	0.502792	0.321682
H23	H	0.856447	0.525707	0.487339
H24	H	0.838787	0.518413	0.324073
C28	C	0.372050	0.518207	0.182281
N8	N	0.272505	0.466941	0.293513
H25	H	0.383860	0.605272	0.202636
H26	H	0.266861	0.505006	0.095168
H27	H	0.357248	0.488297	0.378530
H28	H	0.117508	0.497149	0.301888

loop_
_geom_bond_atom_site_label_1
_geom_bond_atom_site_label_2
_geom_bond_distance
Ni1	O2	0.27172
Ni1	O4	0.26685
Ni1	O6	0.18814
Ni1	O8	0.19072
Ni1	N1	0.20577
Ni1	N3	0.20466
Ni2	O1	0.26865
Ni2	O3	0.26723
Ni2	O5	0.18782
Ni2	O7	0.19027
Ni2	N2	0.20571
Ni2	N4	0.20677
O1	C23	0.14891
O2	C24	0.14858
O3	C21	0.15074
O4	C22	0.15156
O5	C23	0.19286
O6	C24	0.19373
O7	C21	0.19493
O8	C22	0.19438
N1	C11	0.16023
N1	C13	0.20397
N2	C12	0.16107
N2	C14	0.20343
N3	C9	0.15806
N3	C15	0.20084
N4	C10	0.15739
N4	C16	0.20116
C1	C3	0.21048
C1	C11	0.13833
C1	C25	0.18620
C2	H1	0.13330
C2	C4	0.20965
C2	C12	0.13734
C3	C5	0.16595
C3	C21	0.14604
C4	C6	0.16711
C4	C22	0.14505
C5	H2	0.16446
C5	C13	0.14216
C6	C14	0.14113
C6	C26	0.23233
C7	C9	0.13735
C7	C19	0.20650
C7	C27	0.18276
C8	H3	0.12986
C8	C10	0.13863
C8	C20	0.20748
C9	H4	0.16000
C10	H5	0.16093
C11	H6	0.16292
C12	H7	0.16208
C13	H8	0.12652
C14	H9	0.12752
C15	H10	0.12483
C15	C17	0.14091
C16	H11	0.12423
C16	C18	0.14231
C17	H12	0.16125
C17	C19	0.16403
C18	C20	0.16306
C18	C28	0.22937
C19	C23	0.14501
C20	C24	0.14652
C25	N5	0.21410
C25	H13	0.12665
C25	H14	0.09291
N5	H15	0.08778
N5	H16	0.12227
C26	N6	0.16161
C26	H17	0.08967
C26	H18	0.13275
N6	H19	0.11779
N6	H20	0.15946
C27	N7	0.21235
C27	H21	0.09373
C27	H22	0.13026
N7	H23	0.12721
N7	H24	0.11694
C28	N8	0.15783
C28	H25	0.09019
C28	H26	0.13721
N8	H27	0.12192
N8	H28	0.15814
