data_NiPyC2_relax_NiPyC2_relax_aligned_O-CH2-CH2-CH3_NiPyC2_relax_aligned_O-CH2-CH2-CH3_NiPyC2_relax_aligned_O-CH2-CH2-CH3_NiPyC2_relax_aligned_O-CH2-CH2-CH3_PM
_symmetry_space_group_name_H-M	'P1'
_cell_length_a	6.252800
_cell_length_b	12.523400
_cell_length_c	10.276800
_cell_angle_alpha	90.000000
_cell_angle_beta	91.269000
_cell_angle_gamma	90.000000
_symmetry_Int_Tables_number 1

loop_
_symmetry_equiv_pos_as_xyz
'x,y,z'

loop_
_atom_site_label
_atom_site_type_symbol
_atom_site_fract_x
_atom_site_fract_y
_atom_site_fract_z
Ni1	Ni	0.494004	0.751486	0.836326
Ni2	Ni	0.999945	0.247999	0.339178
O1	O	0.245557	0.347689	0.382873
O2	O	0.742416	0.650977	0.881292
O3	O	0.755261	0.147507	0.377178
O4	O	0.250196	0.852352	0.876261
O5	O	0.946138	0.356160	0.482994
O6	O	0.442275	0.641415	0.979877
O7	O	0.057679	0.135158	0.481078
O8	O	0.553372	0.862758	0.979399
N1	N	0.616875	0.851253	0.704828
N2	N	0.121459	0.148857	0.206052
N3	N	0.373085	0.650310	0.705838
N4	N	0.877620	0.350928	0.208041
C1	C	0.576425	0.970050	0.521984
C2	C	0.076758	0.031106	0.022308
H1	H	0.474249	0.999575	0.443113
H2	H	0.973076	0.002692	0.943499
C3	C	0.781269	0.011770	0.546492
C4	C	0.280489	0.987744	0.046146
C5	C	0.903830	0.970202	0.650371
C6	C	0.405041	0.028353	0.149893
H3	H	0.064125	0.998805	0.673520
H4	H	0.564681	0.998665	0.172602
C7	C	0.416363	0.529704	0.526384
C8	C	0.917091	0.471409	0.027904
H5	H	0.517401	0.500895	0.449282
H6	H	0.017282	0.500397	0.950548
C9	C	0.490274	0.613331	0.606435
C10	C	0.993638	0.388677	0.108617
H7	H	0.149937	0.352851	0.095028
C11	C	0.498952	0.889206	0.603203
C12	C	0.002139	0.112232	0.104247
H8	H	0.340308	0.855123	0.588560
C13	C	0.815954	0.889383	0.727552
C14	C	0.319869	0.109547	0.227812
H9	H	0.412479	0.143103	0.308797
C15	C	0.177724	0.608983	0.727352
C16	C	0.681780	0.391633	0.229394
H10	H	0.087458	0.642944	0.806608
C17	C	0.093850	0.525079	0.651312
C18	C	0.595316	0.474711	0.152754
H11	H	0.937343	0.493231	0.673502
H12	H	0.437905	0.505201	0.175264
C19	C	0.216328	0.484270	0.550116
C20	C	0.715665	0.515656	0.050638
C21	C	0.866619	0.099319	0.466621
C22	C	0.363035	0.899720	0.965672
C23	C	0.134755	0.394474	0.470676
C24	C	0.632086	0.604172	0.969107
O_fg1	O_fg	0.943988	0.849774	0.829572
C_fg1	C_fg	0.883842	0.770588	0.914912
C_fg2	C_fg	0.066962	0.749493	0.012378
H_fg1	H_fg	0.739998	0.796662	0.968247
H_fg2	H_fg	0.847261	0.695995	0.859990
C_fg3	C_fg	0.008261	0.662375	0.109058
H_fg3	H_fg	0.211343	0.724211	0.959172
H_fg4	H_fg	0.104827	0.824169	0.066671
H_fg5	H_fg	0.972835	0.586406	0.057097
H_fg6	H_fg	0.144223	0.648898	0.178448
H_fg7	H_fg	0.866057	0.686606	0.164857
O_fg2	O_fg	0.799407	0.153614	0.076290
C_fg4	C_fg	0.701551	0.233310	0.146364
C_fg5	C_fg	0.481312	0.256505	0.085546
H_fg8	H_fg	0.682657	0.206932	0.248848
H_fg9	H_fg	0.800471	0.307106	0.144121
C_fg6	C_fg	0.366388	0.344257	0.159652
H_fg10	H_fg	0.499762	0.282097	0.982811
H_fg11	H_fg	0.382776	0.182628	0.086806
H_fg12	H_fg	0.460499	0.419466	0.158024
H_fg13	H_fg	0.207180	0.359263	0.113226
H_fg14	H_fg	0.343229	0.319756	0.262275
O_fg3	O_fg	0.689392	0.656866	0.579505
C_fg7	C_fg	0.785905	0.739240	0.648252
C_fg8	C_fg	0.002257	0.764163	0.589110
H_fg15	H_fg	0.682898	0.811611	0.642752
H_fg16	H_fg	0.810606	0.715195	0.751717
C_fg9	C_fg	0.115581	0.854892	0.661840
H_fg17	H_fg	0.104839	0.691686	0.593620
H_fg18	H_fg	0.978026	0.787427	0.485423
H_fg19	H_fg	0.144457	0.832777	0.765431
H_fg20	H_fg	0.271967	0.871100	0.616676
H_fg21	H_fg	0.017335	0.928752	0.656974
O_fg4	O_fg	0.555868	0.352620	0.329290
C_fg10	C_fg	0.615052	0.271505	0.413785
C_fg11	C_fg	0.434948	0.251842	0.508912
H_fg22	H_fg	0.762706	0.294783	0.469151
H_fg23	H_fg	0.644876	0.197123	0.357837
C_fg12	C_fg	0.492714	0.162676	0.604582
H_fg24	H_fg	0.286811	0.229361	0.453684
H_fg25	H_fg	0.403819	0.326334	0.564218
H_fg26	H_fg	0.521430	0.086896	0.551558
H_fg27	H_fg	0.358990	0.150298	0.672277
H_fg28	H_fg	0.638726	0.184104	0.662362

loop_
_geom_bond_atom_site_label_1
_geom_bond_atom_site_label_2
_geom_bond_distance
Ni1	O2	0.27172
Ni1	O4	0.26685
Ni1	O6	0.18814
Ni1	O8	0.19072
Ni1	N1	0.20577
Ni1	N3	0.20466
Ni2	O1	0.26865
Ni2	O3	0.26723
Ni2	O5	0.18782
Ni2	O7	0.19027
Ni2	N2	0.20571
Ni2	N4	0.20677
O1	C23	0.14891
O2	C24	0.14858
O3	C21	0.15074
O4	C22	0.15156
O5	C23	0.19286
O6	C24	0.19373
O7	C21	0.19493
O8	C22	0.19438
N1	C11	0.16023
N1	C13	0.20397
N2	C12	0.16107
N2	C14	0.20343
N3	C9	0.15806
N3	C15	0.20084
N4	C10	0.15739
N4	C16	0.20116
C1	H1	0.13241
C1	C3	0.21048
C1	C11	0.13833
C2	H2	0.13330
C2	C4	0.20965
C2	C12	0.13734
C3	C5	0.16595
C3	C21	0.14604
C4	C6	0.16711
C4	C22	0.14505
C5	H3	0.16446
C5	C13	0.14216
C6	H4	0.16396
C6	C14	0.14113
C7	H5	0.13032
C7	C9	0.13735
C7	C19	0.20650
C8	H6	0.12986
C8	C10	0.13863
C8	C20	0.20748
C9	O_fg3	0.20559
C10	H7	0.16093
C11	H8	0.16292
C12	O_fg2	0.20879
C13	O_fg1	0.16843
C14	H9	0.12752
C15	H10	0.12483
C15	C17	0.14091
C16	C18	0.14231
C16	O_fg4	0.16539
C17	H11	0.16125
C17	C19	0.16403
C18	H12	0.16191
C18	C20	0.16306
C19	C23	0.14501
C20	C24	0.14652
O_fg1	C_fg1	0.13104
C_fg1	C_fg2	0.20851
C_fg1	H_fg1	0.15561
C_fg1	H_fg2	0.09959
C_fg2	C_fg3	0.14277
C_fg2	H_fg3	0.15594
C_fg2	H_fg4	0.09979
H_fg1	H_fg2	0.18264
C_fg3	H_fg5	0.09862
C_fg3	H_fg6	0.15324
C_fg3	H_fg7	0.15467
H_fg3	H_fg4	0.18136
H_fg5	H_fg6	0.21910
H_fg5	H_fg7	0.18181
H_fg6	H_fg7	0.28104
O_fg2	C_fg4	0.14435
C_fg4	C_fg5	0.22966
C_fg4	H_fg8	0.10750
C_fg4	H_fg9	0.12343
C_fg5	C_fg6	0.16248
C_fg5	H_fg10	0.10747
C_fg5	H_fg11	0.12316
H_fg8	H_fg9	0.18677
C_fg6	H_fg12	0.12048
C_fg6	H_fg13	0.16652
C_fg6	H_fg14	0.10802
H_fg10	H_fg11	0.18546
H_fg12	H_fg13	0.26420
H_fg12	H_fg14	0.18591
H_fg13	H_fg14	0.20563
O_fg3	C_fg7	0.14431
C_fg7	C_fg8	0.22567
C_fg7	H_fg15	0.12601
C_fg7	H_fg16	0.10906
C_fg8	C_fg9	0.16237
C_fg8	H_fg17	0.12568
C_fg8	H_fg18	0.10899
H_fg15	H_fg16	0.19359
C_fg9	H_fg19	0.10979
C_fg9	H_fg20	0.16358
C_fg9	H_fg21	0.12301
H_fg17	H_fg18	0.19224
H_fg19	H_fg20	0.19964
H_fg19	H_fg21	0.19270
H_fg20	H_fg21	0.26417
O_fg4	C_fg10	0.13123
C_fg10	C_fg11	0.20463
C_fg10	H_fg22	0.15940
C_fg10	H_fg23	0.09774
C_fg11	C_fg12	0.14297
C_fg11	H_fg24	0.15969
C_fg11	H_fg25	0.09786
H_fg22	H_fg23	0.18924
C_fg12	H_fg26	0.09684
H_fg24	H_fg25	0.18792
