data_NiPyC2_relax_NiPyC2_relax_aligned_CH2-CH2-CH3_NiPyC2_relax_aligned_CH2-CH2-CH3_NiPyC2_relax_aligned_CH2-CH2-CH3_NiPyC2_relax_aligned_CH2-CH2-CH3_PM
_symmetry_space_group_name_H-M	'P1'
_cell_length_a	6.252800
_cell_length_b	12.523400
_cell_length_c	10.276800
_cell_angle_alpha	90.000000
_cell_angle_beta	91.269000
_cell_angle_gamma	90.000000
_symmetry_Int_Tables_number 1

loop_
_symmetry_equiv_pos_as_xyz
'x,y,z'

loop_
_atom_site_label
_atom_site_type_symbol
_atom_site_fract_x
_atom_site_fract_y
_atom_site_fract_z
Ni1	Ni	0.494004	0.751486	0.836326
Ni2	Ni	0.999945	0.247999	0.339178
O1	O	0.245557	0.347689	0.382873
O2	O	0.742416	0.650977	0.881292
O3	O	0.755261	0.147507	0.377178
O4	O	0.250196	0.852352	0.876261
O5	O	0.946138	0.356160	0.482994
O6	O	0.442275	0.641415	0.979877
O7	O	0.057679	0.135158	0.481078
O8	O	0.553372	0.862758	0.979399
N1	N	0.616875	0.851253	0.704828
N2	N	0.121459	0.148857	0.206052
N3	N	0.373085	0.650310	0.705838
N4	N	0.877620	0.350928	0.208041
C1	C	0.576425	0.970050	0.521984
C2	C	0.076758	0.031106	0.022308
H1	H	0.474249	0.999575	0.443113
H2	H	0.973076	0.002692	0.943499
C3	C	0.781269	0.011770	0.546492
C4	C	0.280489	0.987744	0.046146
C5	C	0.903830	0.970202	0.650371
C6	C	0.405041	0.028353	0.149893
C7	C	0.416363	0.529704	0.526384
C8	C	0.917091	0.471409	0.027904
C9	C	0.490274	0.613331	0.606435
C10	C	0.993638	0.388677	0.108617
H3	H	0.645282	0.650506	0.592635
H4	H	0.149937	0.352851	0.095028
C11	C	0.498952	0.889206	0.603203
C12	C	0.002139	0.112232	0.104247
H5	H	0.340308	0.855123	0.588560
H6	H	0.844645	0.147732	0.089886
C13	C	0.815954	0.889383	0.727552
C14	C	0.319869	0.109547	0.227812
H7	H	0.906740	0.855173	0.808761
H8	H	0.412479	0.143103	0.308797
C15	C	0.177724	0.608983	0.727352
C16	C	0.681780	0.391633	0.229394
H9	H	0.087458	0.642944	0.806608
H10	H	0.592757	0.357526	0.309051
C17	C	0.093850	0.525079	0.651312
C18	C	0.595316	0.474711	0.152754
H11	H	0.937343	0.493231	0.673502
H12	H	0.437905	0.505201	0.175264
C19	C	0.216328	0.484270	0.550116
C20	C	0.715665	0.515656	0.050638
C21	C	0.866619	0.099319	0.466621
C22	C	0.363035	0.899720	0.965672
C23	C	0.134755	0.394474	0.470676
C24	C	0.632086	0.604172	0.969107
C25	C	0.131434	0.011535	0.680785
C26	C	0.251529	0.960199	0.797118
H13	H	0.120520	0.098591	0.700748
H14	H	0.229213	0.998000	0.593258
C27	C	0.474179	0.008585	0.815968
H15	H	0.269643	0.873013	0.780178
H16	H	0.161016	0.973541	0.887599
H17	H	0.570701	0.995448	0.727929
H18	H	0.557023	0.970130	0.900389
H19	H	0.462394	0.095678	0.835031
C28	C	0.631859	0.985571	0.179341
C29	C	0.754258	0.035869	0.295486
H20	H	0.729134	0.998751	0.091524
H21	H	0.619013	0.898534	0.198976
C30	C	0.975859	0.986097	0.313363
H22	H	0.664282	0.022831	0.386235
H23	H	0.774331	0.122984	0.278849
H24	H	0.962136	0.899030	0.332103
H25	H	0.060407	0.023826	0.397666
H26	H	0.071859	0.998887	0.225034
C31	C	0.555047	0.489376	0.414480
C32	C	0.771943	0.544996	0.397189
H27	H	0.461645	0.499511	0.321993
H28	H	0.587901	0.403178	0.431349
C33	C	0.891969	0.497234	0.283251
H29	H	0.872612	0.535161	0.486927
H30	H	0.746432	0.631433	0.377642
H31	H	0.923142	0.410965	0.300212
H32	H	0.047567	0.538800	0.273058
H33	H	0.797334	0.506952	0.191250
C34	C	0.055360	0.512215	0.915810
C35	C	0.273991	0.458109	0.899370
H34	H	0.962742	0.500921	0.823241
H35	H	0.085560	0.598729	0.932046
C36	C	0.393178	0.506165	0.785282
H36	H	0.373898	0.469141	0.989208
H37	H	0.251154	0.371395	0.880473
H38	H	0.421695	0.592739	0.801606
H39	H	0.550058	0.465697	0.775713
H40	H	0.299312	0.495283	0.693193

loop_
_geom_bond_atom_site_label_1
_geom_bond_atom_site_label_2
_geom_bond_distance
Ni1	O2	0.27172
Ni1	O4	0.26685
Ni1	O6	0.18814
Ni1	O8	0.19072
Ni1	N1	0.20577
Ni1	N3	0.20466
Ni2	O1	0.26865
Ni2	O3	0.26723
Ni2	O5	0.18782
Ni2	O7	0.19027
Ni2	N2	0.20571
Ni2	N4	0.20677
O1	C23	0.14891
O2	C24	0.14858
O3	C21	0.15074
O4	C22	0.15156
O5	C23	0.19286
O6	C24	0.19373
O7	C21	0.19493
O8	C22	0.19438
N1	C11	0.16023
N1	C13	0.20397
N2	C12	0.16107
N2	C14	0.20343
N3	C9	0.15806
N3	C15	0.20084
N4	C10	0.15739
N4	C16	0.20116
C1	H1	0.13241
C1	C3	0.21048
C1	C11	0.13833
C2	H2	0.13330
C2	C4	0.20965
C2	C12	0.13734
C3	C5	0.16595
C3	C21	0.14604
C4	C6	0.16711
C4	C22	0.14505
C5	C13	0.14216
C5	C25	0.23332
C6	C14	0.14113
C6	C28	0.23269
C7	C9	0.13735
C7	C19	0.20650
C7	C31	0.18271
C8	C10	0.13863
C8	C20	0.20748
C8	C34	0.18262
C9	H3	0.16000
C10	H4	0.16093
C11	H5	0.16292
C12	H6	0.16208
C13	H7	0.12652
C14	H8	0.12752
C15	H9	0.12483
C15	C17	0.14091
C16	H10	0.12423
C16	C18	0.14231
C17	H11	0.16125
C17	C19	0.16403
C18	H12	0.16191
C18	C20	0.16306
C19	C23	0.14501
C20	C24	0.14652
C25	C26	0.17490
C25	H13	0.08998
C25	H14	0.13193
C26	C27	0.22863
C26	H15	0.09064
C26	H16	0.12868
C27	H17	0.13130
C27	H18	0.12437
C27	H19	0.08993
C28	C29	0.17607
C28	H20	0.13171
C28	H21	0.09014
C29	C30	0.22782
C29	H22	0.12846
C29	H23	0.09093
C30	H24	0.09011
C30	H25	0.12522
C30	H26	0.13108
C31	C32	0.22458
C31	H27	0.13183
C31	H28	0.09378
C32	C33	0.17225
C32	H29	0.13522
C32	H30	0.09222
C33	H31	0.09328
C33	H32	0.16138
C33	H33	0.13234
C34	C35	0.22583
C34	H34	0.13143
C34	H35	0.09306
C35	C36	0.17185
C35	H36	0.13481
C35	H37	0.09164
C36	H38	0.09260
C36	H39	0.16230
C36	H40	0.13195
