data_NiPyC2_relax_NiPyC2_relax_aligned_CH2-CH2-CH3_NiPyC2_relax_aligned_CH2-CH2-CH3_NiPyC2_relax_aligned_CH2-CH2-CH3_NiPyC2_relax_aligned_CH2-CH2-CH3_NiPyC2_relax_aligned_CH2-CH2-CH3_NiPyC2_relax_aligned_CH2-CH2-CH3_NiPyC2_relax_aligned_CH2-CH2-CH3_NiPyC2_relax_aligned_CH2-CH2-CH3_PM
_symmetry_space_group_name_H-M	'P1'
_cell_length_a	12.505600
_cell_length_b	12.523400
_cell_length_c	10.276800
_cell_angle_alpha	90.000000
_cell_angle_beta	91.269000
_cell_angle_gamma	90.000000
_symmetry_Int_Tables_number 1

loop_
_symmetry_equiv_pos_as_xyz
'x,y,z'

loop_
_atom_site_label
_atom_site_type_symbol
_atom_site_fract_x
_atom_site_fract_y
_atom_site_fract_z
Ni1	Ni	0.247002	0.751486	0.836326
Ni2	Ni	0.499972	0.247999	0.339178
O1	O	0.122778	0.347689	0.382873
O2	O	0.371208	0.650977	0.881292
O3	O	0.377630	0.147507	0.377178
O4	O	0.125098	0.852352	0.876261
O5	O	0.473069	0.356160	0.482994
O6	O	0.221137	0.641415	0.979877
O7	O	0.028840	0.135158	0.481078
O8	O	0.276686	0.862758	0.979399
N1	N	0.308437	0.851253	0.704828
N2	N	0.060729	0.148857	0.206052
N3	N	0.186542	0.650310	0.705838
N4	N	0.438810	0.350928	0.208041
C1	C	0.288212	0.970050	0.521984
C2	C	0.038379	0.031106	0.022308
H1	H	0.237124	0.999575	0.443113
H2	H	0.486538	0.002692	0.943499
C3	C	0.390634	0.011770	0.546492
C4	C	0.140244	0.987744	0.046146
C5	C	0.451915	0.970202	0.650371
C6	C	0.202520	0.028353	0.149893
H3	H	0.032063	0.998805	0.673520
H4	H	0.282340	0.998665	0.172602
C7	C	0.208181	0.529704	0.526384
C8	C	0.458545	0.471409	0.027904
H5	H	0.258700	0.500895	0.449282
H6	H	0.008641	0.500397	0.950548
C9	C	0.245137	0.613331	0.606435
C10	C	0.496819	0.388677	0.108617
H7	H	0.322641	0.650506	0.592635
H8	H	0.074968	0.352851	0.095028
C11	C	0.249476	0.889206	0.603203
C12	C	0.001069	0.112232	0.104247
H9	H	0.170154	0.855123	0.588560
C13	C	0.407977	0.889383	0.727552
C14	C	0.159935	0.109547	0.227812
H10	H	0.206239	0.143103	0.308797
C15	C	0.088862	0.608983	0.727352
C16	C	0.340890	0.391633	0.229394
C17	C	0.046925	0.525079	0.651312
C18	C	0.297658	0.474711	0.152754
H11	H	0.468672	0.493231	0.673502
H12	H	0.218952	0.505201	0.175264
C19	C	0.108164	0.484270	0.550116
C20	C	0.357832	0.515656	0.050638
C21	C	0.433310	0.099319	0.466621
C22	C	0.181517	0.899720	0.965672
C23	C	0.067378	0.394474	0.470676
C24	C	0.316043	0.604172	0.969107
Ni3	Ni	0.747002	0.751486	0.836326
Ni4	Ni	0.999972	0.247999	0.339178
O9	O	0.622779	0.347689	0.382873
O10	O	0.871208	0.650977	0.881292
O11	O	0.877630	0.147507	0.377178
O12	O	0.625098	0.852352	0.876261
O13	O	0.973069	0.356160	0.482994
O14	O	0.721137	0.641415	0.979877
O15	O	0.528840	0.135158	0.481078
O16	O	0.776686	0.862758	0.979399
N5	N	0.808437	0.851253	0.704828
N6	N	0.560729	0.148857	0.206052
N7	N	0.686543	0.650310	0.705838
N8	N	0.938810	0.350928	0.208041
C25	C	0.788212	0.970050	0.521984
C26	C	0.538379	0.031106	0.022308
H13	H	0.737124	0.999575	0.443113
H14	H	0.986538	0.002692	0.943499
C27	C	0.890634	0.011770	0.546492
C28	C	0.640244	0.987744	0.046146
C29	C	0.951915	0.970202	0.650371
C30	C	0.702520	0.028353	0.149893
H15	H	0.532062	0.998805	0.673520
H16	H	0.782340	0.998665	0.172602
C31	C	0.708182	0.529704	0.526384
C32	C	0.958546	0.471409	0.027904
H17	H	0.758700	0.500895	0.449282
H18	H	0.508641	0.500397	0.950548
C33	C	0.745137	0.613331	0.606435
C34	C	0.996819	0.388677	0.108617
H19	H	0.822641	0.650506	0.592635
H20	H	0.574968	0.352851	0.095028
C35	C	0.749476	0.889206	0.603203
C36	C	0.501069	0.112232	0.104247
C37	C	0.907977	0.889383	0.727552
C38	C	0.659934	0.109547	0.227812
H21	H	0.953370	0.855173	0.808761
H22	H	0.706240	0.143103	0.308797
C39	C	0.588862	0.608983	0.727352
C40	C	0.840890	0.391633	0.229394
C41	C	0.546925	0.525079	0.651312
C42	C	0.797658	0.474711	0.152754
H23	H	0.968672	0.493231	0.673502
H24	H	0.718952	0.505201	0.175264
C43	C	0.608164	0.484270	0.550116
C44	C	0.857832	0.515656	0.050638
C45	C	0.933310	0.099319	0.466621
C46	C	0.681517	0.899720	0.965672
C47	C	0.567377	0.394474	0.470676
C48	C	0.816043	0.604172	0.969107
C49	C	0.477605	0.842899	0.843152
C50	C	0.424998	0.754673	0.923918
H25	H	0.551919	0.808830	0.802662
H26	H	0.498362	0.909392	0.910790
C51	C	0.500179	0.715963	1.033089
H27	H	0.351058	0.785945	0.968411
H28	H	0.404581	0.685448	0.860349
H29	H	0.521213	0.782850	1.099887
H30	H	0.460229	0.652455	1.089663
H31	H	0.574579	0.682651	0.992144
C52	C	-0.112562	0.160693	0.075811
C53	C	-0.148469	0.249108	0.169144
H32	H	-0.172303	0.095157	0.080722
H33	H	-0.113462	0.195229	-0.023866
C54	C	-0.260022	0.289836	0.131647
H34	H	-0.091829	0.317424	0.165590
H35	H	-0.150630	0.217413	0.270111
H36	H	-0.260637	0.323614	0.031679
H37	H	-0.283839	0.353437	0.200493
H38	H	-0.319264	0.223898	0.135890
C55	C	0.019694	0.655029	0.839651
C56	C	0.070344	0.746800	0.919157
H39	H	-0.056633	0.685399	0.796235
H40	H	0.002742	0.589157	0.908722
C57	C	-0.004305	0.784762	1.025233
H41	H	0.146263	0.719290	0.966483
H42	H	0.086925	0.815470	0.854065
H43	H	-0.021535	0.718469	1.093467
H44	H	0.034206	0.850870	1.080953
H45	H	-0.080698	0.814364	0.981382
C58	C	0.272417	0.345740	0.342624
C59	C	0.324178	0.254995	0.422858
H46	H	0.255077	0.411936	0.411082
H47	H	0.196243	0.314374	0.299903
C60	C	0.250239	0.217101	0.529710
H48	H	0.341186	0.186024	0.358413
H49	H	0.399983	0.283526	0.469520
H50	H	0.173992	0.186497	0.486548
H51	H	0.289546	0.151740	0.585947
H52	H	0.232614	0.283712	0.597326
C61	C	0.635148	0.842653	0.574229
C62	C	0.597718	0.754406	0.666876
H53	H	0.633838	0.808569	0.474318
H54	H	0.576442	0.909094	0.579478
C63	C	0.485584	0.715591	0.628883
H55	H	0.595918	0.785690	0.768053
H56	H	0.653280	0.685230	0.662958
H57	H	0.427382	0.782427	0.633469
H58	H	0.460669	0.652070	0.697237
H59	H	0.484574	0.682264	0.528684
C64	C	0.387438	0.160693	0.075811
C65	C	0.351531	0.249108	0.169144
H60	H	0.327697	0.095157	0.080722
H61	H	0.386538	0.195229	-0.023866
C66	C	0.239978	0.289836	0.131647
H62	H	0.408171	0.317424	0.165590
H63	H	0.349370	0.217413	0.270111
H64	H	0.239363	0.323614	0.031679
H65	H	0.216161	0.353437	0.200493
H66	H	0.180736	0.223898	0.135890
C67	C	0.519694	0.655029	0.839651
C68	C	0.570344	0.746800	0.919157
H67	H	0.443367	0.685399	0.796235
H68	H	0.502742	0.589157	0.908722
C69	C	0.495695	0.784762	1.025233
H69	H	0.646263	0.719290	0.966483
H70	H	0.586925	0.815470	0.854065
H71	H	0.478465	0.718469	1.093467
H72	H	0.534206	0.850870	1.080953
H73	H	0.419302	0.814364	0.981382
C70	C	0.772416	0.345738	0.342622
C71	C	0.824174	0.254990	0.422852
H74	H	0.696242	0.314374	0.299900
H75	H	0.755076	0.411933	0.411082
C72	C	0.750235	0.217093	0.529702
H76	H	0.899980	0.283518	0.469517
H77	H	0.841183	0.186021	0.358403
H78	H	0.732611	0.283701	0.597322
H79	H	0.789539	0.151729	0.585934
H80	H	0.673987	0.186494	0.486537

loop_
_geom_bond_atom_site_label_1
_geom_bond_atom_site_label_2
_geom_bond_distance
Ni1	O2	0.16599
Ni1	O4	0.16318
Ni1	O6	0.18273
Ni1	O8	0.18366
Ni1	N1	0.17612
Ni1	N3	0.17584
Ni2	O3	0.16282
Ni2	O5	0.18195
Ni2	N4	0.17757
Ni2	O9	0.16410
Ni2	O15	0.18358
Ni2	N6	0.17676
O1	C23	0.11387
O1	Ni4	0.16410
O2	C24	0.11378
O3	C21	0.11585
O4	C22	0.11585
O5	C47	0.10254
O6	C24	0.10252
O7	Ni4	0.18358
O7	C45	0.10305
O8	C22	0.10301
N1	C11	0.12347
N1	C13	0.10899
N2	C12	0.12355
N2	C14	0.10891
N2	Ni4	0.17676
N3	C9	0.12117
N3	C15	0.10822
N4	C10	0.12114
N4	C16	0.10817
C1	H1	0.09850
C1	C3	0.11328
C1	C11	0.12097
C2	C4	0.11325
C2	C12	0.12119
C2	H14	0.09852
H2	C26	0.09852
C3	C5	0.12757
C3	C21	0.12596
C4	C6	0.12764
C4	C22	0.12621
C5	C13	0.12008
C5	H15	0.08819
C6	H4	0.08814
C6	C14	0.12032
H3	C29	0.08819
C7	H5	0.09658
C7	C9	0.12152
C7	C19	0.11239
C8	C10	0.12175
C8	C20	0.11233
C8	H18	0.09661
H6	C32	0.09661
C9	H7	0.08706
C10	H20	0.08704
H8	C34	0.08704
C11	H9	0.08757
C12	C52	0.12676
C13	C49	0.14273
C14	H10	0.09914
C15	C17	0.12075
C15	C55	0.13970
C16	C18	0.12102
C16	C58	0.14006
C17	C19	0.12512
C17	H23	0.08735
C18	H12	0.08735
C18	C20	0.12540
H11	C41	0.08735
C19	C23	0.12664
C20	C24	0.12739
C21	O15	0.10305
C23	O13	0.10254
Ni3	O10	0.16599
Ni3	O12	0.16318
Ni3	O14	0.18273
Ni3	O16	0.18366
Ni3	N5	0.17612
Ni3	N7	0.17584
Ni4	O11	0.16282
Ni4	O13	0.18195
Ni4	N8	0.17757
O9	C47	0.11387
O10	C48	0.11378
O11	C45	0.11585
O12	C46	0.11585
O14	C48	0.10252
O16	C46	0.10301
N5	C35	0.12347
N5	C37	0.10899
N6	C36	0.12355
N6	C38	0.10891
N7	C33	0.12117
N7	C39	0.10822
N8	C34	0.12114
N8	C40	0.10817
C25	H13	0.09850
C25	C27	0.11328
C25	C35	0.12097
C26	C28	0.11325
C26	C36	0.12119
C27	C29	0.12757
C27	C45	0.12596
C28	C30	0.12764
C28	C46	0.12621
C29	C37	0.12008
C30	H16	0.08814
C30	C38	0.12032
C31	H17	0.09658
C31	C33	0.12152
C31	C43	0.11239
C32	C34	0.12175
C32	C44	0.11233
C33	H19	0.08706
C35	C61	0.12680
C36	C64	0.12676
C37	H21	0.09912
C38	H22	0.09914
C39	C41	0.12075
C39	C67	0.13970
C40	C42	0.12102
C40	C70	0.14006
C41	C43	0.12512
C42	H24	0.08735
C42	C44	0.12540
C43	C47	0.12664
C44	C48	0.12739
C49	C50	0.13067
C49	H25	0.09123
C49	H26	0.09709
C50	C51	0.13809
C50	H27	0.09179
C50	H28	0.09618
C51	H29	0.09684
C51	H30	0.09397
C51	H31	0.09122
C52	C53	0.13348
C52	H32	0.08882
C52	H33	0.10549
C53	C54	0.12453
C53	H34	0.08881
C53	H35	0.10585
C54	H36	0.10552
C54	H37	0.09671
C54	H38	0.08874
C55	C56	0.13156
C55	H39	0.09292
C55	H40	0.09694
C56	C57	0.13515
C56	H41	0.09360
C56	H42	0.09606
C57	H43	0.09668
C57	H44	0.09465
C57	H45	0.09292
C58	C59	0.13172
C58	H46	0.09679
C58	H47	0.09280
C59	C60	0.13535
C59	H48	0.09591
C59	H49	0.09348
C60	H50	0.09281
C60	H51	0.09476
C60	H52	0.09654
C61	C62	0.13331
C61	H53	0.10557
C61	H54	0.08882
C62	C63	0.12460
C62	H55	0.10592
C62	H56	0.08881
C63	H57	0.08874
C63	H58	0.09658
C63	H59	0.10560
C64	C65	0.13348
C64	H60	0.08882
C64	H61	0.10549
C65	C66	0.12453
C65	H62	0.08881
C65	H63	0.10585
C66	H64	0.10552
C66	H65	0.09671
C66	H66	0.08874
C67	C68	0.13156
C67	H67	0.09292
C67	H68	0.09694
C68	C69	0.13515
C68	H69	0.09360
C68	H70	0.09606
C69	H71	0.09668
C69	H72	0.09465
C69	H73	0.09292
C70	C71	0.13172
C70	H74	0.09280
C70	H75	0.09679
C71	C72	0.13535
C71	H76	0.09348
C71	H77	0.09591
C72	H78	0.09654
C72	H79	0.09476
C72	H80	0.09281
