data_NiPyC2_relax_NiPyC2_relax_aligned_O-CH2-CH2-CH3_NiPyC2_relax_aligned_O-CH2-CH2-CH3_NiPyC2_relax_aligned_O-CH2-CH2-CH3_NiPyC2_relax_aligned_O-CH2-CH2-CH3_PM
_symmetry_space_group_name_H-M	'P1'
_cell_length_a	6.252800
_cell_length_b	12.523400
_cell_length_c	10.276800
_cell_angle_alpha	90.000000
_cell_angle_beta	91.269000
_cell_angle_gamma	90.000000
_symmetry_Int_Tables_number 1

loop_
_symmetry_equiv_pos_as_xyz
'x,y,z'

loop_
_atom_site_label
_atom_site_type_symbol
_atom_site_fract_x
_atom_site_fract_y
_atom_site_fract_z
Ni1	Ni	0.494004	0.751486	0.836326
Ni2	Ni	0.999945	0.247999	0.339178
O1	O	0.245557	0.347689	0.382873
O2	O	0.742416	0.650977	0.881292
O3	O	0.755261	0.147507	0.377178
O4	O	0.250196	0.852352	0.876261
O5	O	0.946138	0.356160	0.482994
O6	O	0.442275	0.641415	0.979877
O7	O	0.057679	0.135158	0.481078
O8	O	0.553372	0.862758	0.979399
N1	N	0.616875	0.851253	0.704828
N2	N	0.121459	0.148857	0.206052
N3	N	0.373085	0.650310	0.705838
N4	N	0.877620	0.350928	0.208041
C1	C	0.576425	0.970050	0.521984
C2	C	0.076758	0.031106	0.022308
H1	H	0.474249	0.999575	0.443113
H2	H	0.973076	0.002692	0.943499
C3	C	0.781269	0.011770	0.546492
C4	C	0.280489	0.987744	0.046146
C5	C	0.903830	0.970202	0.650371
C6	C	0.405041	0.028353	0.149893
C7	C	0.416363	0.529704	0.526384
C8	C	0.917091	0.471409	0.027904
H3	H	0.517401	0.500895	0.449282
H4	H	0.017282	0.500397	0.950548
C9	C	0.490274	0.613331	0.606435
C10	C	0.993638	0.388677	0.108617
H5	H	0.645282	0.650506	0.592635
H6	H	0.149937	0.352851	0.095028
C11	C	0.498952	0.889206	0.603203
C12	C	0.002139	0.112232	0.104247
H7	H	0.340308	0.855123	0.588560
H8	H	0.844645	0.147732	0.089886
C13	C	0.815954	0.889383	0.727552
C14	C	0.319869	0.109547	0.227812
H9	H	0.906740	0.855173	0.808761
H10	H	0.412479	0.143103	0.308797
C15	C	0.177724	0.608983	0.727352
C16	C	0.681780	0.391633	0.229394
H11	H	0.087458	0.642944	0.806608
H12	H	0.592757	0.357526	0.309051
C17	C	0.093850	0.525079	0.651312
C18	C	0.595316	0.474711	0.152754
C19	C	0.216328	0.484270	0.550116
C20	C	0.715665	0.515656	0.050638
C21	C	0.866619	0.099319	0.466621
C22	C	0.363035	0.899720	0.965672
C23	C	0.134755	0.394474	0.470676
C24	C	0.632086	0.604172	0.969107
O9	O	0.105286	0.008518	0.674916
C25	C	0.242685	0.974809	0.773718
C26	C	0.451550	0.037674	0.767431
H13	H	0.277094	0.888225	0.761943
H14	H	0.168274	0.988942	0.869540
C27	C	0.609156	0.003286	0.874905
H15	H	0.417270	0.124299	0.778187
H16	H	0.525327	0.024286	0.671347
H17	H	0.540047	0.017451	0.972057
H18	H	0.759009	0.050293	0.867783
H19	H	0.648367	0.917194	0.864960
O10	O	0.605734	0.988760	0.173576
C28	C	0.744855	0.021386	0.272042
C29	C	0.952078	0.957278	0.264774
H20	H	0.671015	0.007463	0.368080
H21	H	0.781260	0.107784	0.260489
C30	C	0.111506	0.990446	0.371838
H22	H	0.025259	0.970455	0.168473
H23	H	0.915788	0.870840	0.275313
H24	H	0.152721	0.076319	0.362086
H25	H	0.260109	0.942553	0.364005
H26	H	0.042985	0.976463	0.469188
O11	O	0.896731	0.482994	0.674151
C31	C	0.760083	0.515559	0.770228
C32	C	0.556432	0.448259	0.762859
H27	H	0.717973	0.601112	0.755675
H28	H	0.839039	0.504736	0.867416
C33	C	0.399841	0.481234	0.867323
H29	H	0.598381	0.362644	0.776391
H30	H	0.478163	0.458346	0.665438
H31	H	0.473550	0.470291	0.965771
H32	H	0.253797	0.431000	0.859475
H33	H	0.353039	0.566227	0.854549
O12	O	0.397469	0.515827	0.176044
C34	C	0.262600	0.483068	0.272958
C35	C	0.057405	0.549200	0.265804
H34	H	0.342320	0.494885	0.369749
H35	H	0.222272	0.397208	0.259321
C36	C	0.902686	0.515963	0.371180
H36	H	0.978356	0.538126	0.168770
H37	H	0.097562	0.635116	0.278427
H38	H	0.857669	0.430647	0.359327
H39	H	0.755464	0.565345	0.363470
H40	H	0.977164	0.527870	0.469252

loop_
_geom_bond_atom_site_label_1
_geom_bond_atom_site_label_2
_geom_bond_distance
Ni1	O2	0.27172
Ni1	O4	0.26685
Ni1	O6	0.18814
Ni1	O8	0.19072
Ni1	N1	0.20577
Ni1	N3	0.20466
Ni2	O1	0.26865
Ni2	O3	0.26723
Ni2	O5	0.18782
Ni2	O7	0.19027
Ni2	N2	0.20571
Ni2	N4	0.20677
O1	C23	0.14891
O2	C24	0.14858
O3	C21	0.15074
O4	C22	0.15156
O5	C23	0.19286
O6	C24	0.19373
O7	C21	0.19493
O8	C22	0.19438
N1	C11	0.16023
N1	C13	0.20397
N2	C12	0.16107
N2	C14	0.20343
N3	C9	0.15806
N3	C15	0.20084
N4	C10	0.15739
N4	C16	0.20116
C1	H1	0.13241
C1	C3	0.21048
C1	C11	0.13833
C2	H2	0.13330
C2	C4	0.20965
C2	C12	0.13734
C3	C5	0.16595
C3	C21	0.14604
C4	C6	0.16711
C4	C22	0.14505
C5	C13	0.14216
C5	O9	0.20653
C6	C14	0.14113
C6	O10	0.20593
C7	H3	0.13032
C7	C9	0.13735
C7	C19	0.20650
C8	H4	0.12986
C8	C10	0.13863
C8	C20	0.20748
C9	H5	0.16000
C10	H6	0.16093
C11	H7	0.16292
C12	H8	0.16208
C13	H9	0.12652
C14	H10	0.12752
C15	H11	0.12483
C15	C17	0.14091
C16	H12	0.12423
C16	C18	0.14231
C17	C19	0.16403
C17	O11	0.20285
C18	C20	0.16306
C18	O12	0.20341
C19	C23	0.14501
C20	C24	0.14652
O9	C25	0.17256
C25	C26	0.21821
C25	H13	0.09391
C25	H14	0.12214
C26	C27	0.19384
C26	H15	0.09378
C26	H16	0.12188
C27	H17	0.12006
C27	H18	0.15721
C27	H19	0.09512
O10	C28	0.17354
C28	C29	0.21703
C28	H20	0.12194
C28	H21	0.09446
C29	C30	0.19489
C29	H22	0.12167
C29	H23	0.09434
C30	H24	0.09575
C30	H25	0.15633
C30	H26	0.11987
O11	C31	0.17019
C31	C32	0.21461
C31	H27	0.09646
C31	H28	0.12569
C32	C33	0.19110
C32	H29	0.09629
C32	H30	0.12537
C33	H31	0.12347
C33	H32	0.15464
C33	H33	0.09786
O12	C34	0.16928
C34	C35	0.21571
C34	H34	0.12595
C34	H35	0.09583
C35	C36	0.19012
C35	H36	0.12565
C35	H37	0.09567
C36	H38	0.09719
