data_NiPyC2_relax_NiPyC2_relax_aligned_S-CH3_NiPyC2_relax_aligned_S-CH3_NiPyC2_relax_aligned_S-CH3_NiPyC2_relax_aligned_S-CH3_PM
_symmetry_space_group_name_H-M	'P1'
_cell_length_a	6.252800
_cell_length_b	12.523400
_cell_length_c	10.276800
_cell_angle_alpha	90.000000
_cell_angle_beta	91.269000
_cell_angle_gamma	90.000000
_symmetry_Int_Tables_number 1

loop_
_symmetry_equiv_pos_as_xyz
'x,y,z'

loop_
_atom_site_label
_atom_site_type_symbol
_atom_site_fract_x
_atom_site_fract_y
_atom_site_fract_z
Ni1	Ni	0.494004	0.751486	0.836326
Ni2	Ni	0.999945	0.247999	0.339178
O1	O	0.245557	0.347689	0.382873
O2	O	0.742416	0.650977	0.881292
O3	O	0.755261	0.147507	0.377178
O4	O	0.250196	0.852352	0.876261
O5	O	0.946138	0.356160	0.482994
O6	O	0.442275	0.641415	0.979877
O7	O	0.057679	0.135158	0.481078
O8	O	0.553372	0.862758	0.979399
N1	N	0.616875	0.851253	0.704828
N2	N	0.121459	0.148857	0.206052
N3	N	0.373085	0.650310	0.705838
N4	N	0.877620	0.350928	0.208041
C1	C	0.576425	0.970050	0.521984
C2	C	0.076758	0.031106	0.022308
C3	C	0.781269	0.011770	0.546492
C4	C	0.280489	0.987744	0.046146
C5	C	0.903830	0.970202	0.650371
C6	C	0.405041	0.028353	0.149893
H1	H	0.064125	0.998805	0.673520
H2	H	0.564681	0.998665	0.172602
C7	C	0.416363	0.529704	0.526384
C8	C	0.917091	0.471409	0.027904
H3	H	0.517401	0.500895	0.449282
H4	H	0.017282	0.500397	0.950548
C9	C	0.490274	0.613331	0.606435
C10	C	0.993638	0.388677	0.108617
H5	H	0.645282	0.650506	0.592635
H6	H	0.149937	0.352851	0.095028
C11	C	0.498952	0.889206	0.603203
C12	C	0.002139	0.112232	0.104247
H7	H	0.340308	0.855123	0.588560
H8	H	0.844645	0.147732	0.089886
C13	C	0.815954	0.889383	0.727552
C14	C	0.319869	0.109547	0.227812
H9	H	0.906740	0.855173	0.808761
H10	H	0.412479	0.143103	0.308797
C15	C	0.177724	0.608983	0.727352
C16	C	0.681780	0.391633	0.229394
H11	H	0.087458	0.642944	0.806608
H12	H	0.592757	0.357526	0.309051
C17	C	0.093850	0.525079	0.651312
C18	C	0.595316	0.474711	0.152754
C19	C	0.216328	0.484270	0.550116
C20	C	0.715665	0.515656	0.050638
C21	C	0.866619	0.099319	0.466621
C22	C	0.363035	0.899720	0.965672
C23	C	0.134755	0.394474	0.470676
C24	C	0.632086	0.604172	0.969107
S1	S	0.402194	0.013936	0.390100
C25	C	0.272409	0.115031	0.488027
H13	H	0.154771	0.158223	0.425142
H14	H	0.184337	0.077093	0.568437
H15	H	0.391280	0.174122	0.525031
S2	S	0.900529	0.989082	0.890504
C26	C	0.768222	0.888573	0.988051
H16	H	0.648960	0.846526	0.925123
H17	H	0.681749	0.926838	0.068887
H18	H	0.885474	0.828447	0.024437
S3	S	0.832177	0.476039	0.691138
C27	C	0.693118	0.571202	0.585622
H19	H	0.518924	0.555273	0.589920
H20	H	0.722129	0.654018	0.620203
H21	H	0.741537	0.560561	0.483166
S4	S	0.332956	0.522527	0.193231
C28	C	0.194949	0.425976	0.089124
H22	H	0.020481	0.440966	0.093977
H23	H	0.226195	0.343533	0.124342
H24	H	0.242019	0.436274	0.986367

loop_
_geom_bond_atom_site_label_1
_geom_bond_atom_site_label_2
_geom_bond_distance
Ni1	O2	0.27172
Ni1	O4	0.26685
Ni1	O6	0.18814
Ni1	O8	0.19072
Ni1	N1	0.20577
Ni1	N3	0.20466
Ni2	O1	0.26865
Ni2	O3	0.26723
Ni2	O5	0.18782
Ni2	O7	0.19027
Ni2	N2	0.20571
Ni2	N4	0.20677
O1	C23	0.14891
O2	C24	0.14858
O3	C21	0.15074
O4	C22	0.15156
O5	C23	0.19286
O6	C24	0.19373
O7	C21	0.19493
O8	C22	0.19438
N1	C11	0.16023
N1	C13	0.20397
N2	C12	0.16107
N2	C14	0.20343
N3	C9	0.15806
N3	C15	0.20084
N4	C10	0.15739
N4	C16	0.20116
C1	C3	0.21048
C1	C11	0.13833
C1	S1	0.22288
C2	C4	0.20965
C2	C12	0.13734
C2	S2	0.22404
C3	C5	0.16595
C3	C21	0.14604
C4	C6	0.16711
C4	C22	0.14505
C5	H1	0.16446
C5	C13	0.14216
C6	H2	0.16396
C6	C14	0.14113
C7	H3	0.13032
C7	C9	0.13735
C7	C19	0.20650
C8	H4	0.12986
C8	C10	0.13863
C8	C20	0.20748
C9	H5	0.16000
C10	H6	0.16093
C11	H7	0.16292
C12	H8	0.16208
C13	H9	0.12652
C14	H10	0.12752
C15	H11	0.12483
C15	C17	0.14091
C16	H12	0.12423
C16	C18	0.14231
C17	C19	0.16403
C17	S3	0.26919
C18	C20	0.16306
C18	S4	0.26974
C19	C23	0.14501
C20	C24	0.14652
S1	C25	0.19145
C25	H13	0.14021
C25	H14	0.12515
C25	H15	0.13781
S2	C26	0.19267
C26	H16	0.14125
C26	H17	0.12440
C26	H18	0.13670
S3	C27	0.19881
C27	H19	0.17497
C27	H20	0.09432
C27	H21	0.11382
S4	C28	0.19801
C28	H22	0.17518
C28	H23	0.09494
C28	H24	0.11349
