data_NiPyC2_relax_NiPyC2_relax_aligned_N-2CH3_NiPyC2_relax_aligned_N-2CH3_NiPyC2_relax_aligned_N-2CH3_NiPyC2_relax_aligned_N-2CH3_PM
_symmetry_space_group_name_H-M	'P1'
_cell_length_a	6.252800
_cell_length_b	12.523400
_cell_length_c	10.276800
_cell_angle_alpha	90.000000
_cell_angle_beta	91.269000
_cell_angle_gamma	90.000000
_symmetry_Int_Tables_number 1

loop_
_symmetry_equiv_pos_as_xyz
'x,y,z'

loop_
_atom_site_label
_atom_site_type_symbol
_atom_site_fract_x
_atom_site_fract_y
_atom_site_fract_z
Ni1	Ni	0.494004	0.751486	0.836326
Ni2	Ni	0.999945	0.247999	0.339178
O1	O	0.245557	0.347689	0.382873
O2	O	0.742416	0.650977	0.881292
O3	O	0.755261	0.147507	0.377178
O4	O	0.250196	0.852352	0.876261
O5	O	0.946138	0.356160	0.482994
O6	O	0.442275	0.641415	0.979877
O7	O	0.057679	0.135158	0.481078
O8	O	0.553372	0.862758	0.979399
N1	N	0.616875	0.851253	0.704828
N2	N	0.121459	0.148857	0.206052
N3	N	0.373085	0.650310	0.705838
N4	N	0.877620	0.350928	0.208041
C1	C	0.576425	0.970050	0.521984
C2	C	0.076758	0.031106	0.022308
C3	C	0.781269	0.011770	0.546492
C4	C	0.280489	0.987744	0.046146
C5	C	0.903830	0.970202	0.650371
C6	C	0.405041	0.028353	0.149893
H1	H	0.064125	0.998805	0.673520
H2	H	0.564681	0.998665	0.172602
C7	C	0.416363	0.529704	0.526384
C8	C	0.917091	0.471409	0.027904
H3	H	0.517401	0.500895	0.449282
H4	H	0.017282	0.500397	0.950548
C9	C	0.490274	0.613331	0.606435
C10	C	0.993638	0.388677	0.108617
H5	H	0.645282	0.650506	0.592635
H6	H	0.149937	0.352851	0.095028
C11	C	0.498952	0.889206	0.603203
C12	C	0.002139	0.112232	0.104247
H7	H	0.340308	0.855123	0.588560
H8	H	0.844645	0.147732	0.089886
C13	C	0.815954	0.889383	0.727552
C14	C	0.319869	0.109547	0.227812
H9	H	0.906740	0.855173	0.808761
H10	H	0.412479	0.143103	0.308797
C15	C	0.177724	0.608983	0.727352
C16	C	0.681780	0.391633	0.229394
H11	H	0.087458	0.642944	0.806608
H12	H	0.592757	0.357526	0.309051
C17	C	0.093850	0.525079	0.651312
C18	C	0.595316	0.474711	0.152754
C19	C	0.216328	0.484270	0.550116
C20	C	0.715665	0.515656	0.050638
C21	C	0.866619	0.099319	0.466621
C22	C	0.363035	0.899720	0.965672
C23	C	0.134755	0.394474	0.470676
C24	C	0.632086	0.604172	0.969107
N_fg1	N_fg	0.432844	0.008444	0.418398
C_fg1	C_fg	0.295227	0.935214	0.345409
H_fg1	H_fg	0.329193	0.850412	0.369331
H_fg2	H_fg	0.322207	0.945198	0.239680
H_fg3	H_fg	0.124779	0.952454	0.365315
C_fg2	C_fg	0.401601	0.122037	0.395586
H_fg4	H_fg	0.499726	0.171814	0.463350
H_fg5	H_fg	0.232007	0.143077	0.412684
H_fg6	H_fg	0.437175	0.142256	0.293087
N_fg2	N_fg	0.931490	0.994228	0.918777
C_fg3	C_fg	0.795734	0.068779	0.846533
H_fg7	H_fg	0.832395	0.153218	0.870932
H_fg8	H_fg	0.821841	0.059027	0.740680
H_fg9	H_fg	0.624902	0.052738	0.866673
C_fg4	C_fg	0.896684	0.880977	0.895298
H_fg10	H_fg	0.993641	0.830193	0.962548
H_fg11	H_fg	0.726575	0.861142	0.912605
H_fg12	H_fg	0.931091	0.860913	0.792592
N_fg3	N_fg	0.879250	0.488061	0.680135
C_fg5	C_fg	0.808468	0.479681	0.813617
H_fg13	H_fg	0.940077	0.494069	0.885678
H_fg14	H_fg	0.747827	0.397735	0.831243
H_fg15	H_fg	0.677915	0.537843	0.830675
C_fg6	C_fg	0.719522	0.471430	0.577120
H_fg16	H_fg	0.782978	0.488591	0.479337
H_fg17	H_fg	0.583673	0.527098	0.590938
H_fg18	H_fg	0.656358	0.388626	0.580959
N_fg4	N_fg	0.380172	0.510700	0.182147
C_fg7	C_fg	0.310646	0.519483	0.315850
H_fg19	H_fg	0.443321	0.506253	0.387520
H_fg20	H_fg	0.248357	0.601192	0.332978
H_fg21	H_fg	0.181620	0.460706	0.333959
C_fg8	C_fg	0.219002	0.525835	0.079612
H_fg22	H_fg	0.281784	0.508443	0.981720
H_fg23	H_fg	0.084589	0.469503	0.094480
H_fg24	H_fg	0.154023	0.608304	0.082955

loop_
_geom_bond_atom_site_label_1
_geom_bond_atom_site_label_2
_geom_bond_distance
Ni1	O2	0.27172
Ni1	O4	0.26685
Ni1	O6	0.18814
Ni1	O8	0.19072
Ni1	N1	0.20577
Ni1	N3	0.20466
Ni2	O1	0.26865
Ni2	O3	0.26723
Ni2	O5	0.18782
Ni2	O7	0.19027
Ni2	N2	0.20571
Ni2	N4	0.20677
O1	C23	0.14891
O2	C24	0.14858
O3	C21	0.15074
O4	C22	0.15156
O5	C23	0.19286
O6	C24	0.19373
O7	C21	0.19493
O8	C22	0.19438
N1	C11	0.16023
N1	C13	0.20397
N2	C12	0.16107
N2	C14	0.20343
N3	C9	0.15806
N3	C15	0.20084
N4	C10	0.15739
N4	C16	0.20116
C1	C3	0.21048
C1	C11	0.13833
C1	N_fg1	0.18116
C2	C4	0.20965
C2	C12	0.13734
C2	N_fg2	0.18216
C3	C5	0.16595
C3	C21	0.14604
C4	C6	0.16711
C4	C22	0.14505
C5	H1	0.16446
C5	C13	0.14216
C6	H2	0.16396
C6	C14	0.14113
C7	H3	0.13032
C7	C9	0.13735
C7	C19	0.20650
C8	H4	0.12986
C8	C10	0.13863
C8	C20	0.20748
C9	H5	0.16000
C10	H6	0.16093
C11	H7	0.16292
C12	H8	0.16208
C13	H9	0.12652
C14	H10	0.12752
C15	H11	0.12483
C15	C17	0.14091
C16	H12	0.12423
C16	C18	0.14231
C17	C19	0.16403
C17	N_fg3	0.21967
C18	C20	0.16306
C18	N_fg4	0.22010
C19	C23	0.14501
C20	C24	0.14652
N_fg1	C_fg1	0.17213
N_fg1	C_fg2	0.12000
C_fg1	H_fg1	0.09443
C_fg1	H_fg2	0.10957
C_fg1	H_fg3	0.17247
H_fg1	H_fg2	0.16076
H_fg1	H_fg3	0.22850
H_fg2	H_fg3	0.23412
C_fg2	H_fg4	0.12922
C_fg2	H_fg5	0.17175
C_fg2	H_fg6	0.11037
H_fg4	H_fg5	0.27398
H_fg4	H_fg6	0.18378
H_fg5	H_fg6	0.23748
N_fg2	C_fg3	0.17090
N_fg2	C_fg4	0.12078
C_fg3	H_fg7	0.09523
C_fg3	H_fg8	0.10946
C_fg3	H_fg9	0.17276
H_fg7	H_fg8	0.16109
H_fg7	H_fg9	0.23058
H_fg8	H_fg9	0.23388
C_fg4	H_fg10	0.12846
C_fg4	H_fg11	0.17213
C_fg4	H_fg12	0.11016
H_fg10	H_fg11	0.27345
H_fg10	H_fg12	0.18369
H_fg11	H_fg12	0.23713
N_fg3	C_fg5	0.15132
N_fg3	C_fg6	0.19079
C_fg5	H_fg13	0.15073
C_fg5	H_fg14	0.10346
C_fg5	H_fg15	0.14394
H_fg13	H_fg14	0.22182
H_fg13	H_fg15	0.27142
H_fg14	H_fg15	0.15658
C_fg6	H_fg16	0.11782
C_fg6	H_fg17	0.14746
C_fg6	H_fg18	0.10422
H_fg16	H_fg17	0.23165
H_fg16	H_fg18	0.19066
H_fg17	H_fg18	0.15671
N_fg4	C_fg7	0.15096
N_fg4	C_fg8	0.19162
C_fg7	H_fg19	0.15137
C_fg7	H_fg20	0.10416
C_fg7	H_fg21	0.14293
H_fg19	H_fg20	0.22361
H_fg19	H_fg21	0.27098
H_fg20	H_fg21	0.15553
C_fg8	H_fg22	0.11759
C_fg8	H_fg23	0.14650
C_fg8	H_fg24	0.10505
H_fg22	H_fg23	0.23047
H_fg22	H_fg24	0.19116
H_fg23	H_fg24	0.15563
