data_NiPyC2_relax_sc211_NiPyC2_relax_sc211_aligned_S-CH3_NiPyC2_relax_sc211_aligned_S-CH3_NiPyC2_relax_sc211_aligned_S-CH3_NiPyC2_relax_sc211_aligned_S-CH3_NiPyC2_relax_sc211_aligned_S-CH3_NiPyC2_relax_sc211_aligned_S-CH3_NiPyC2_relax_sc211_aligned_S-CH3_NiPyC2_relax_sc211_aligned_S-CH3_PM
_symmetry_space_group_name_H-M	'P1'
_cell_length_a	12.505600
_cell_length_b	12.523400
_cell_length_c	10.276800
_cell_angle_alpha	90.000000
_cell_angle_beta	91.269000
_cell_angle_gamma	90.000000
_symmetry_Int_Tables_number 1

loop_
_symmetry_equiv_pos_as_xyz
'x,y,z'

loop_
_atom_site_label
_atom_site_type_symbol
_atom_site_fract_x
_atom_site_fract_y
_atom_site_fract_z
Ni1	Ni	0.247002	0.751486	0.836326
Ni2	Ni	0.499972	0.247999	0.339178
O1	O	0.122778	0.347689	0.382873
O2	O	0.371208	0.650977	0.881292
O3	O	0.377630	0.147507	0.377178
O4	O	0.125098	0.852352	0.876261
O5	O	0.473069	0.356160	0.482994
O6	O	0.221137	0.641415	0.979877
O7	O	0.028840	0.135158	0.481078
O8	O	0.276686	0.862758	0.979399
N1	N	0.308437	0.851253	0.704828
N2	N	0.060729	0.148857	0.206052
N3	N	0.186542	0.650310	0.705838
N4	N	0.438810	0.350928	0.208041
C1	C	0.288212	0.970050	0.521984
C2	C	0.038379	0.031106	0.022308
C3	C	0.390634	0.011770	0.546492
C4	C	0.140244	0.987744	0.046146
C5	C	0.451915	0.970202	0.650371
C6	C	0.202520	0.028353	0.149893
H1	H	0.032063	0.998805	0.673520
C7	C	0.208181	0.529704	0.526384
C8	C	0.458545	0.471409	0.027904
H2	H	0.008641	0.500397	0.950548
C9	C	0.245137	0.613331	0.606435
C10	C	0.496819	0.388677	0.108617
H3	H	0.322641	0.650506	0.592635
H4	H	0.074968	0.352851	0.095028
C11	C	0.249476	0.889206	0.603203
C12	C	0.001069	0.112232	0.104247
H5	H	0.170154	0.855123	0.588560
H6	H	0.422322	0.147732	0.089886
C13	C	0.407977	0.889383	0.727552
C14	C	0.159935	0.109547	0.227812
H7	H	0.453370	0.855173	0.808761
H8	H	0.206239	0.143103	0.308797
C15	C	0.088862	0.608983	0.727352
C16	C	0.340890	0.391633	0.229394
H9	H	0.043729	0.642944	0.806608
H10	H	0.296378	0.357526	0.309051
C17	C	0.046925	0.525079	0.651312
C18	C	0.297658	0.474711	0.152754
C19	C	0.108164	0.484270	0.550116
C20	C	0.357832	0.515656	0.050638
C21	C	0.433310	0.099319	0.466621
C22	C	0.181517	0.899720	0.965672
C23	C	0.067378	0.394474	0.470676
C24	C	0.316043	0.604172	0.969107
Ni3	Ni	0.747002	0.751486	0.836326
Ni4	Ni	0.999972	0.247999	0.339178
O9	O	0.622779	0.347689	0.382873
O10	O	0.871208	0.650977	0.881292
O11	O	0.877630	0.147507	0.377178
O12	O	0.625098	0.852352	0.876261
O13	O	0.973069	0.356160	0.482994
O14	O	0.721137	0.641415	0.979877
O15	O	0.528840	0.135158	0.481078
O16	O	0.776686	0.862758	0.979399
N5	N	0.808437	0.851253	0.704828
N6	N	0.560729	0.148857	0.206052
N7	N	0.686543	0.650310	0.705838
N8	N	0.938810	0.350928	0.208041
C25	C	0.788212	0.970050	0.521984
C26	C	0.538379	0.031106	0.022308
H11	H	0.986538	0.002692	0.943499
C27	C	0.890634	0.011770	0.546492
C28	C	0.640244	0.987744	0.046146
C29	C	0.951915	0.970202	0.650371
C30	C	0.702520	0.028353	0.149893
H12	H	0.532062	0.998805	0.673520
H13	H	0.782340	0.998665	0.172602
C31	C	0.708182	0.529704	0.526384
C32	C	0.958546	0.471409	0.027904
H14	H	0.758700	0.500895	0.449282
H15	H	0.508641	0.500397	0.950548
C33	C	0.745137	0.613331	0.606435
C34	C	0.996819	0.388677	0.108617
H16	H	0.822641	0.650506	0.592635
H17	H	0.574968	0.352851	0.095028
C35	C	0.749476	0.889206	0.603203
C36	C	0.501069	0.112232	0.104247
H18	H	0.670154	0.855123	0.588560
H19	H	0.922322	0.147732	0.089886
C37	C	0.907977	0.889383	0.727552
C38	C	0.659934	0.109547	0.227812
H20	H	0.953370	0.855173	0.808761
H21	H	0.706240	0.143103	0.308797
C39	C	0.588862	0.608983	0.727352
C40	C	0.840890	0.391633	0.229394
H22	H	0.543729	0.642944	0.806608
H23	H	0.796378	0.357526	0.309051
C41	C	0.546925	0.525079	0.651312
C42	C	0.797658	0.474711	0.152754
H24	H	0.968672	0.493231	0.673502
C43	C	0.608164	0.484270	0.550116
C44	C	0.857832	0.515656	0.050638
C45	C	0.933310	0.099319	0.466621
C46	C	0.681517	0.899720	0.965672
C47	C	0.567377	0.394474	0.470676
C48	C	0.816043	0.604172	0.969107
S1	S	0.201096	0.013936	0.390100
C49	C	0.118956	0.052286	0.265999
H25	H	0.136465	0.134115	0.231100
H26	H	0.112496	0.999005	0.179872
H27	H	0.042963	0.055463	0.319673
S2	S	0.335978	0.982867	0.190545
C50	C	0.461797	0.942954	0.229020
H28	H	0.479084	0.861014	0.194338
H29	H	0.528559	0.995546	0.199817
H30	H	0.454563	0.939569	0.336401
S3	S	0.294005	0.487352	0.397279
C51	C	0.374865	0.450439	0.275660
H31	H	0.360017	0.367388	0.242407
H32	H	0.377102	0.502513	0.188364
H33	H	0.452171	0.451335	0.330854
S4	S	0.166478	0.522527	0.193232
C52	C	0.044375	0.567285	0.234498
H34	H	0.000995	0.606611	0.152295
H35	H	0.039635	0.620272	0.320759
H36	H	0.005532	0.488994	0.251667
S5	S	0.701096	0.013936	0.390100
C53	C	0.618956	0.052286	0.265999
H37	H	0.636465	0.134115	0.231100
H38	H	0.612496	0.999005	0.179872
H39	H	0.542963	0.055463	0.319673
S6	S	0.450005	0.988632	0.890978
C54	C	0.365151	0.948877	0.770273
H40	H	0.407012	0.911494	0.687857
H41	H	0.297806	0.896002	0.796761
H42	H	0.336579	0.028674	0.737832
S7	S	0.416088	0.476039	0.691138
C55	C	0.294258	0.430172	0.731837
H43	H	0.251763	0.389884	0.649665
H44	H	0.289645	0.377646	0.818528
H45	H	0.254438	0.508126	0.747979
S8	S	0.666478	0.522527	0.193232
C56	C	0.544375	0.567285	0.234498
H46	H	0.500995	0.606611	0.152295
H47	H	0.539635	0.620272	0.320759
H48	H	0.505532	0.488994	0.251667

loop_
_geom_bond_atom_site_label_1
_geom_bond_atom_site_label_2
_geom_bond_distance
Ni1	O2	0.16599
Ni1	O4	0.16318
Ni1	O6	0.18273
Ni1	O8	0.18366
Ni1	N1	0.17612
Ni1	N3	0.17584
Ni2	O3	0.16282
Ni2	O5	0.18195
Ni2	N4	0.17757
Ni2	O9	0.16410
Ni2	O15	0.18358
Ni2	N6	0.17676
O1	C23	0.11387
O1	Ni4	0.16410
O2	C24	0.11378
O3	C21	0.11586
O4	C22	0.11585
O5	C47	0.10254
O6	C24	0.10252
O7	Ni4	0.18358
O7	C45	0.10305
O8	C22	0.10301
N1	C11	0.12347
N1	C13	0.10899
N2	C12	0.12355
N2	C14	0.10891
N2	Ni4	0.17676
N3	C9	0.12117
N3	C15	0.10822
N4	C10	0.12114
N4	C16	0.10817
C1	C3	0.11328
C1	C11	0.12097
C1	S1	0.16404
C2	C4	0.11325
C2	C12	0.12119
C2	H11	0.09852
C3	C5	0.12757
C3	C21	0.12596
C4	C6	0.12764
C4	C22	0.12621
C5	C13	0.12008
C5	H12	0.08819
C6	C14	0.12032
C6	S2	0.14674
H1	C29	0.08819
C7	C9	0.12152
C7	C19	0.11239
C7	S3	0.16071
C8	C10	0.12175
C8	C20	0.11233
C8	H15	0.09661
H2	C32	0.09661
C9	H3	0.08706
C10	H17	0.08704
H4	C34	0.08704
C11	H5	0.08757
C12	H19	0.08756
H6	C36	0.08756
C13	H7	0.09912
C14	H8	0.09914
C15	H9	0.09732
C15	C17	0.12075
C16	H10	0.09742
C16	C18	0.12102
C17	C19	0.12512
C17	H24	0.08735
C18	C20	0.12540
C18	S4	0.14537
C19	C23	0.12664
C20	C24	0.12739
C21	O15	0.10305
C23	O13	0.10254
Ni3	O10	0.16599
Ni3	O12	0.16318
Ni3	O14	0.18273
Ni3	O16	0.18366
Ni3	N5	0.17612
Ni3	N7	0.17584
Ni4	O11	0.16282
Ni4	O13	0.18195
Ni4	N8	0.17757
O9	C47	0.11388
O10	C48	0.11378
O11	C45	0.11586
O12	C46	0.11585
O14	C48	0.10252
O16	C46	0.10301
N5	C35	0.12347
N5	C37	0.10899
N6	C36	0.12355
N6	C38	0.10891
N7	C33	0.12117
N7	C39	0.10822
N8	C34	0.12114
N8	C40	0.10817
C25	C27	0.11328
C25	C35	0.12097
C25	S5	0.16404
C26	C28	0.11325
C26	C36	0.12119
C26	S6	0.16390
C27	C29	0.12757
C27	C45	0.12596
C28	C30	0.12764
C28	C46	0.12621
C29	C37	0.12008
C30	H13	0.08814
C30	C38	0.12032
C31	H14	0.09658
C31	C33	0.12152
C31	C43	0.11239
C32	C34	0.12175
C32	C44	0.11233
C33	H16	0.08706
C35	H18	0.08757
C37	H20	0.09912
C38	H21	0.09914
C39	H22	0.09732
C39	C41	0.12075
C40	H23	0.09742
C40	C42	0.12102
C41	C43	0.12512
C41	S7	0.14529
C42	C44	0.12540
C42	S8	0.14537
C43	C47	0.12664
C44	C48	0.12739
S1	C49	0.15368
C49	H25	0.09067
C49	H26	0.10148
C49	H27	0.09309
S2	C50	0.13749
C50	H28	0.09064
C50	H29	0.08987
C50	H30	0.10768
S3	C51	0.15064
C51	H31	0.09068
C51	H32	0.10167
C51	H33	0.09499
S4	C52	0.13644
C52	H34	0.10092
C52	H35	0.10135
C52	H36	0.08907
S5	C53	0.15368
C53	H37	0.09067
C53	H38	0.10148
C53	H39	0.09309
S6	C54	0.15281
C54	H40	0.09971
C54	H41	0.08963
C54	H42	0.09075
S7	C55	0.13639
C55	H43	0.10090
C55	H44	0.10147
C55	H45	0.08901
S8	C56	0.13644
C56	H46	0.10092
C56	H47	0.10135
C56	H48	0.08907
