data_NiPyC2_relax_sc211_NiPyC2_relax_sc211_aligned_N-2CH3_NiPyC2_relax_sc211_aligned_N-2CH3_NiPyC2_relax_sc211_aligned_N-2CH3_NiPyC2_relax_sc211_aligned_N-2CH3_NiPyC2_relax_sc211_aligned_N-2CH3_NiPyC2_relax_sc211_aligned_N-2CH3_NiPyC2_relax_sc211_aligned_N-2CH3_NiPyC2_relax_sc211_aligned_N-2CH3_PM
_symmetry_space_group_name_H-M	'P1'
_cell_length_a	12.505600
_cell_length_b	12.523400
_cell_length_c	10.276800
_cell_angle_alpha	90.000000
_cell_angle_beta	91.269000
_cell_angle_gamma	90.000000
_symmetry_Int_Tables_number 1

loop_
_symmetry_equiv_pos_as_xyz
'x,y,z'

loop_
_atom_site_label
_atom_site_type_symbol
_atom_site_fract_x
_atom_site_fract_y
_atom_site_fract_z
Ni1	Ni	0.247002	0.751486	0.836326
Ni2	Ni	0.499972	0.247999	0.339178
O1	O	0.122778	0.347689	0.382873
O2	O	0.371208	0.650977	0.881292
O3	O	0.377630	0.147507	0.377178
O4	O	0.125098	0.852352	0.876261
O5	O	0.473069	0.356160	0.482994
O6	O	0.221137	0.641415	0.979877
O7	O	0.028840	0.135158	0.481078
O8	O	0.276686	0.862758	0.979399
N1	N	0.308437	0.851253	0.704828
N2	N	0.060729	0.148857	0.206052
N3	N	0.186542	0.650310	0.705838
N4	N	0.438810	0.350928	0.208041
C1	C	0.288212	0.970050	0.521984
C2	C	0.038379	0.031106	0.022308
C3	C	0.390634	0.011770	0.546492
C4	C	0.140244	0.987744	0.046146
C5	C	0.451915	0.970202	0.650371
C6	C	0.202520	0.028353	0.149893
H1	H	0.282340	0.998665	0.172602
C7	C	0.208181	0.529704	0.526384
C8	C	0.458545	0.471409	0.027904
H2	H	0.258700	0.500895	0.449282
H3	H	0.008641	0.500397	0.950548
C9	C	0.245137	0.613331	0.606435
C10	C	0.496819	0.388677	0.108617
H4	H	0.322641	0.650506	0.592635
H5	H	0.074968	0.352851	0.095028
C11	C	0.249476	0.889206	0.603203
C12	C	0.001069	0.112232	0.104247
H6	H	0.170154	0.855123	0.588560
H7	H	0.422322	0.147732	0.089886
C13	C	0.407977	0.889383	0.727552
C14	C	0.159935	0.109547	0.227812
H8	H	0.453370	0.855173	0.808761
H9	H	0.206239	0.143103	0.308797
C15	C	0.088862	0.608983	0.727352
C16	C	0.340890	0.391633	0.229394
H10	H	0.043729	0.642944	0.806608
H11	H	0.296378	0.357526	0.309051
C17	C	0.046925	0.525079	0.651312
C18	C	0.297658	0.474711	0.152754
H12	H	0.468672	0.493231	0.673502
C19	C	0.108164	0.484270	0.550116
C20	C	0.357832	0.515656	0.050638
C21	C	0.433310	0.099319	0.466621
C22	C	0.181517	0.899720	0.965672
C23	C	0.067378	0.394474	0.470676
C24	C	0.316043	0.604172	0.969107
Ni3	Ni	0.747002	0.751486	0.836326
Ni4	Ni	0.999972	0.247999	0.339178
O9	O	0.622779	0.347689	0.382873
O10	O	0.871208	0.650977	0.881292
O11	O	0.877630	0.147507	0.377178
O12	O	0.625098	0.852352	0.876261
O13	O	0.973069	0.356160	0.482994
O14	O	0.721137	0.641415	0.979877
O15	O	0.528840	0.135158	0.481078
O16	O	0.776686	0.862758	0.979399
N5	N	0.808437	0.851253	0.704828
N6	N	0.560729	0.148857	0.206052
N7	N	0.686543	0.650310	0.705838
N8	N	0.938810	0.350928	0.208041
C25	C	0.788212	0.970050	0.521984
C26	C	0.538379	0.031106	0.022308
H13	H	0.737124	0.999575	0.443113
C27	C	0.890634	0.011770	0.546492
C28	C	0.640244	0.987744	0.046146
C29	C	0.951915	0.970202	0.650371
C30	C	0.702520	0.028353	0.149893
H14	H	0.532062	0.998805	0.673520
H15	H	0.782340	0.998665	0.172602
C31	C	0.708182	0.529704	0.526384
C32	C	0.958546	0.471409	0.027904
H16	H	0.508641	0.500397	0.950548
C33	C	0.745137	0.613331	0.606435
C34	C	0.996819	0.388677	0.108617
H17	H	0.822641	0.650506	0.592635
H18	H	0.574968	0.352851	0.095028
C35	C	0.749476	0.889206	0.603203
C36	C	0.501069	0.112232	0.104247
H19	H	0.670154	0.855123	0.588560
H20	H	0.922322	0.147732	0.089886
C37	C	0.907977	0.889383	0.727552
C38	C	0.659934	0.109547	0.227812
H21	H	0.953370	0.855173	0.808761
H22	H	0.706240	0.143103	0.308797
C39	C	0.588862	0.608983	0.727352
C40	C	0.840890	0.391633	0.229394
H23	H	0.543729	0.642944	0.806608
H24	H	0.796378	0.357526	0.309051
C41	C	0.546925	0.525079	0.651312
C42	C	0.797658	0.474711	0.152754
C43	C	0.608164	0.484270	0.550116
C44	C	0.857832	0.515656	0.050638
C45	C	0.933310	0.099319	0.466621
C46	C	0.681517	0.899720	0.965672
C47	C	0.567377	0.394474	0.470676
C48	C	0.816043	0.604172	0.969107
Nfg1	Nfg	0.219392	0.003156	0.412833
Cfg1	Cfg	0.104259	0.012373	0.426631
Hfg1	Hfg	0.079452	0.001945	0.528843
Hfg2	Hfg	0.077893	0.093288	0.395569
Hfg3	Hfg	0.062708	0.951886	0.364718
Cfg2	Cfg	0.261102	0.014715	0.282614
Hfg4	Hfg	0.347981	0.997191	0.279533
Hfg5	Hfg	0.220806	0.956556	0.216342
Hfg6	Hfg	0.244466	0.096197	0.244603
Nfg2	Nfg	0.965745	0.994229	0.918777
Cfg3	Cfg	0.897867	0.068780	0.846532
Hfg7	Hfg	0.916198	0.153219	0.870932
Hfg8	Hfg	0.910921	0.059027	0.740679
Hfg9	Hfg	0.812451	0.052739	0.866673
Cfg4	Cfg	0.948342	0.880977	0.895298
Hfg10	Hfg	0.996820	0.830193	0.962547
Hfg11	Hfg	0.863287	0.861142	0.912604
Hfg12	Hfg	0.965546	0.860913	0.792591
Nfg3	Nfg	0.939625	0.488061	0.680135
Cfg5	Cfg	0.904234	0.479681	0.813617
Hfg13	Hfg	0.970038	0.494069	0.885678
Hfg14	Hfg	0.873914	0.397735	0.831243
Hfg15	Hfg	0.838958	0.537843	0.830675
Cfg6	Cfg	0.859761	0.471430	0.577120
Hfg16	Hfg	0.891489	0.488591	0.479337
Hfg17	Hfg	0.791836	0.527098	0.590938
Hfg18	Hfg	0.828179	0.388626	0.580959
Nfg4	Nfg	0.190086	0.510700	0.182147
Cfg7	Cfg	0.155323	0.519483	0.315850
Hfg19	Hfg	0.221661	0.506253	0.387520
Hfg20	Hfg	0.124179	0.601192	0.332979
Hfg21	Hfg	0.090810	0.460706	0.333960
Cfg8	Cfg	0.109501	0.525835	0.079613
Hfg22	Hfg	0.140891	0.508443	0.981721
Hfg23	Hfg	0.042294	0.469503	0.094481
Hfg24	Hfg	0.077011	0.608304	0.082956
Nfg5	Nfg	0.058419	0.008485	0.686924
Cfg9	Cfg	0.141164	0.935217	0.733037
Hfg25	Hfg	0.116329	0.850427	0.724147
Hfg26	Hfg	0.213545	0.945160	0.673569
Hfg27	Hfg	0.162282	0.952455	0.836479
Cfg10	Cfg	0.081877	0.122068	0.694758
Hfg28	Hfg	0.011273	0.171878	0.668483
Hfg29	Hfg	0.104890	0.143103	0.796544
Hfg30	Hfg	0.150074	0.142247	0.631852
Nfg6	Nfg	0.465745	0.994229	0.918777
Cfg11	Cfg	0.397867	0.068780	0.846532
Hfg31	Hfg	0.416198	0.153219	0.870932
Hfg32	Hfg	0.410921	0.059027	0.740679
Hfg33	Hfg	0.312451	0.052739	0.866673
Cfg12	Cfg	0.448342	0.880977	0.895298
Hfg34	Hfg	0.496820	0.830193	0.962547
Hfg35	Hfg	0.363287	0.861142	0.912604
Hfg36	Hfg	0.465546	0.860913	0.792591
Nfg7	Nfg	0.779108	0.492663	0.425156
Cfg13	Cfg	0.843113	0.567494	0.351699
Hfg37	Hfg	0.823114	0.651889	0.373248
Hfg38	Hfg	0.827631	0.555212	0.245953
Hfg39	Hfg	0.929463	0.554172	0.373639
Cfg14	Cfg	0.798985	0.379469	0.405388
Hfg40	Hfg	0.753604	0.328806	0.473426
Hfg41	Hfg	0.885004	0.362287	0.424604
Hfg42	Hfg	0.779714	0.356835	0.303037
Nfg8	Nfg	0.693239	0.515831	0.187946
Cfg15	Cfg	0.609316	0.444609	0.231226
Hfg43	Hfg	0.631306	0.359207	0.221325
Hfg44	Hfg	0.535876	0.457487	0.170560
Hfg45	Hfg	0.591149	0.461257	0.334583
Cfg16	Cfg	0.673494	0.629979	0.197319
Hfg46	Hfg	0.745015	0.677896	0.173240
Hfg47	Hfg	0.653512	0.650501	0.299050
Hfg48	Hfg	0.604475	0.652999	0.133471

loop_
_geom_bond_atom_site_label_1
_geom_bond_atom_site_label_2
_geom_bond_distance
Ni1	O2	0.16599
Ni1	O4	0.16318
Ni1	O6	0.18273
Ni1	O8	0.18366
Ni1	N1	0.17612
Ni1	N3	0.17584
Ni2	O3	0.16282
Ni2	O5	0.18195
Ni2	N4	0.17757
Ni2	O9	0.16410
Ni2	O15	0.18358
Ni2	N6	0.17676
O1	C23	0.11387
O1	Ni4	0.16410
O2	C24	0.11378
O3	C21	0.11586
O4	C22	0.11585
O5	C47	0.10254
O6	C24	0.10252
O7	Ni4	0.18358
O7	C45	0.10305
O8	C22	0.10301
N1	C11	0.12347
N1	C13	0.10899
N2	C12	0.12355
N2	C14	0.10891
N2	Ni4	0.17676
N3	C9	0.12117
N3	C15	0.10822
N4	C10	0.12114
N4	C16	0.10817
C1	C3	0.11328
C1	C11	0.12097
C1	Nfg1	0.13322
C2	C4	0.11325
C2	C12	0.12119
C2	Nfg2	0.13174
C3	C5	0.12757
C3	C21	0.12596
C4	C6	0.12764
C4	C22	0.12621
C5	C13	0.12008
C5	H14	0.08819
C6	H1	0.08814
C6	C14	0.12032
C7	H2	0.09658
C7	C9	0.12152
C7	C19	0.11239
C8	C10	0.12175
C8	C20	0.11233
C8	H16	0.09661
H3	C32	0.09661
C9	H4	0.08706
C10	H18	0.08704
H5	C34	0.08704
C11	H6	0.08757
C12	H20	0.08756
H7	C36	0.08756
C13	H8	0.09912
C14	H9	0.09914
C15	H10	0.09732
C15	C17	0.12075
C16	H11	0.09742
C16	C18	0.12102
C17	C19	0.12512
C17	Nfg3	0.11711
C18	C20	0.12540
C18	Nfg4	0.11718
H12	C41	0.08735
C19	C23	0.12664
C20	C24	0.12739
C21	O15	0.10305
C23	O13	0.10254
Ni3	O10	0.16599
Ni3	O12	0.16318
Ni3	O14	0.18273
Ni3	O16	0.18366
Ni3	N5	0.17612
Ni3	N7	0.17584
Ni4	O11	0.16282
Ni4	O13	0.18195
Ni4	N8	0.17757
O9	C47	0.11388
O10	C48	0.11378
O11	C45	0.11586
O12	C46	0.11585
O14	C48	0.10252
O16	C46	0.10301
N5	C35	0.12347
N5	C37	0.10899
N6	C36	0.12355
N6	C38	0.10891
N7	C33	0.12117
N7	C39	0.10822
N8	C34	0.12114
N8	C40	0.10817
C25	H13	0.09850
C25	C27	0.11328
C25	C35	0.12097
C26	C28	0.11325
C26	C36	0.12119
C26	Nfg6	0.13174
C27	C29	0.12757
C27	C45	0.12596
C28	C30	0.12764
C28	C46	0.12621
C29	C37	0.12008
C29	Nfg5	0.11893
C30	H15	0.08814
C30	C38	0.12032
C31	C33	0.12152
C31	C43	0.11239
C31	Nfg7	0.12903
C32	C34	0.12175
C32	C44	0.11233
C33	H17	0.08706
C35	H19	0.08757
C37	H21	0.09912
C38	H22	0.09914
C39	H23	0.09732
C39	C41	0.12075
C40	H24	0.09742
C40	C42	0.12102
C41	C43	0.12512
C42	C44	0.12540
C42	Nfg8	0.11761
C43	C47	0.12664
C44	C48	0.12739
Nfg1	Cfg1	0.11632
Nfg1	Cfg2	0.13722
Cfg1	Hfg1	0.10570
Cfg1	Hfg2	0.09059
Cfg1	Hfg3	0.09601
Hfg1	Hfg2	0.16158
Hfg1	Hfg3	0.17241
Hfg2	Hfg3	0.14552
Cfg2	Hfg4	0.08868
Cfg2	Hfg5	0.09694
Cfg2	Hfg6	0.09144
Hfg4	Hfg5	0.14771
Hfg4	Hfg6	0.14744
Hfg5	Hfg6	0.14442
Nfg2	Cfg3	0.12403
Nfg2	Cfg4	0.11696
Cfg3	Hfg7	0.08978
Cfg3	Hfg8	0.10710
Cfg3	Hfg9	0.08921
Hfg7	Hfg8	0.16083
Hfg7	Hfg9	0.14449
Hfg8	Hfg9	0.16003
Cfg4	Hfg10	0.09722
Cfg4	Hfg11	0.08903
Cfg4	Hfg12	0.10605
Hfg10	Hfg11	0.14589
Hfg10	Hfg12	0.17552
Hfg11	Hfg12	0.15767
Nfg3	Cfg5	0.13835
Nfg3	Cfg6	0.13140
Cfg5	Hfg13	0.09864
Cfg5	Hfg14	0.08914
Cfg5	Hfg15	0.08908
Hfg13	Hfg14	0.14657
Hfg13	Hfg15	0.14874
Hfg14	Hfg15	0.14440
Cfg6	Hfg16	0.10422
Cfg6	Hfg17	0.08890
Cfg6	Hfg18	0.08870
Hfg16	Hfg17	0.15449
Hfg16	Hfg18	0.15597
Hfg17	Hfg18	0.14351
Nfg4	Cfg7	0.13843
Nfg4	Cfg8	0.13129
Cfg7	Hfg19	0.09855
Cfg7	Hfg20	0.08911
Cfg7	Hfg21	0.08913
Hfg19	Hfg20	0.14660
Hfg19	Hfg21	0.14854
Hfg20	Hfg21	0.14440
Cfg8	Hfg22	0.10426
Cfg8	Hfg23	0.08894
Cfg8	Hfg24	0.08870
Hfg22	Hfg23	0.15477
Hfg22	Hfg24	0.15589
Hfg23	Hfg24	0.14354
Nfg5	Cfg9	0.11975
Nfg5	Cfg10	0.11624
Cfg9	Hfg25	0.08880
Cfg9	Hfg26	0.09420
Cfg9	Hfg27	0.10697
Hfg25	Hfg26	0.14486
Hfg25	Hfg27	0.15856
Hfg26	Hfg27	0.17094
Cfg10	Hfg28	0.09031
Cfg10	Hfg29	0.10645
Cfg10	Hfg30	0.09495
Hfg28	Hfg29	0.16122
Hfg28	Hfg30	0.14658
Hfg29	Hfg30	0.17078
Nfg6	Cfg11	0.12403
Nfg6	Cfg12	0.11696
Cfg11	Hfg31	0.08978
Cfg11	Hfg32	0.10710
Cfg11	Hfg33	0.08921
Hfg31	Hfg32	0.16083
Hfg31	Hfg33	0.14449
Hfg32	Hfg33	0.16003
Cfg12	Hfg34	0.09722
Cfg12	Hfg35	0.08903
Cfg12	Hfg36	0.10605
Hfg34	Hfg35	0.14589
Hfg34	Hfg36	0.17552
Hfg35	Hfg36	0.15767
Nfg7	Cfg13	0.12285
Nfg7	Cfg14	0.11661
Cfg13	Hfg37	0.08937
Cfg13	Hfg38	0.10758
Cfg13	Hfg39	0.09008
Hfg37	Hfg38	0.15991
Hfg37	Hfg39	0.14443
Hfg38	Hfg39	0.16332
Cfg14	Hfg40	0.09620
Cfg14	Hfg41	0.08980
Cfg14	Hfg42	0.10658
Hfg40	Hfg41	0.14412
Hfg40	Hfg42	0.17464
Hfg41	Hfg42	0.16092
Nfg8	Cfg15	0.11827
Nfg8	Cfg16	0.11622
Cfg15	Hfg43	0.08874
Cfg15	Hfg44	0.09612
Cfg15	Hfg45	0.10625
Hfg43	Hfg44	0.14609
Hfg43	Hfg45	0.15765
Hfg44	Hfg45	0.17313
Cfg16	Hfg46	0.08939
Cfg16	Hfg47	0.10569
Cfg16	Hfg48	0.09680
Hfg46	Hfg47	0.15796
Hfg46	Hfg48	0.14816
Hfg47	Hfg48	0.17271
