data_NiPyC2_relax_sc211_NiPyC2_relax_sc211_aligned_P-2CH3_NiPyC2_relax_sc211_aligned_P-2CH3_NiPyC2_relax_sc211_aligned_P-2CH3_NiPyC2_relax_sc211_aligned_P-2CH3_NiPyC2_relax_sc211_aligned_P-2CH3_NiPyC2_relax_sc211_aligned_P-2CH3_NiPyC2_relax_sc211_aligned_P-2CH3_NiPyC2_relax_sc211_aligned_P-2CH3_PM
_symmetry_space_group_name_H-M	'P1'
_cell_length_a	12.505600
_cell_length_b	12.523400
_cell_length_c	10.276800
_cell_angle_alpha	90.000000
_cell_angle_beta	91.269000
_cell_angle_gamma	90.000000
_symmetry_Int_Tables_number 1

loop_
_symmetry_equiv_pos_as_xyz
'x,y,z'

loop_
_atom_site_label
_atom_site_type_symbol
_atom_site_fract_x
_atom_site_fract_y
_atom_site_fract_z
Ni1	Ni	0.247002	0.751486	0.836326
Ni2	Ni	0.499972	0.247999	0.339178
O1	O	0.122778	0.347689	0.382873
O2	O	0.371208	0.650977	0.881292
O3	O	0.377630	0.147507	0.377178
O4	O	0.125098	0.852352	0.876261
O5	O	0.473069	0.356160	0.482994
O6	O	0.221137	0.641415	0.979877
O7	O	0.028840	0.135158	0.481078
O8	O	0.276686	0.862758	0.979399
N1	N	0.308437	0.851253	0.704828
N2	N	0.060729	0.148857	0.206052
N3	N	0.186542	0.650310	0.705838
N4	N	0.438810	0.350928	0.208041
C1	C	0.288212	0.970050	0.521984
C2	C	0.038379	0.031106	0.022308
H1	H	0.237124	0.999575	0.443113
H2	H	0.486538	0.002692	0.943499
C3	C	0.390634	0.011770	0.546492
C4	C	0.140244	0.987744	0.046146
C5	C	0.451915	0.970202	0.650371
C6	C	0.202520	0.028353	0.149893
H3	H	0.032063	0.998805	0.673520
H4	H	0.282340	0.998665	0.172602
C7	C	0.208181	0.529704	0.526384
C8	C	0.458545	0.471409	0.027904
H5	H	0.258700	0.500895	0.449282
H6	H	0.008641	0.500397	0.950548
C9	C	0.245137	0.613331	0.606435
C10	C	0.496819	0.388677	0.108617
C11	C	0.249476	0.889206	0.603203
C12	C	0.001069	0.112232	0.104247
H7	H	0.170154	0.855123	0.588560
H8	H	0.422322	0.147732	0.089886
C13	C	0.407977	0.889383	0.727552
C14	C	0.159935	0.109547	0.227812
C15	C	0.088862	0.608983	0.727352
C16	C	0.340890	0.391633	0.229394
H9	H	0.043729	0.642944	0.806608
C17	C	0.046925	0.525079	0.651312
C18	C	0.297658	0.474711	0.152754
H10	H	0.468672	0.493231	0.673502
H11	H	0.218952	0.505201	0.175264
C19	C	0.108164	0.484270	0.550116
C20	C	0.357832	0.515656	0.050638
C21	C	0.433310	0.099319	0.466621
C22	C	0.181517	0.899720	0.965672
C23	C	0.067378	0.394474	0.470676
C24	C	0.316043	0.604172	0.969107
Ni3	Ni	0.747002	0.751486	0.836326
Ni4	Ni	0.999972	0.247999	0.339178
O9	O	0.622779	0.347689	0.382873
O10	O	0.871208	0.650977	0.881292
O11	O	0.877630	0.147507	0.377178
O12	O	0.625098	0.852352	0.876261
O13	O	0.973069	0.356160	0.482994
O14	O	0.721137	0.641415	0.979877
O15	O	0.528840	0.135158	0.481078
O16	O	0.776686	0.862758	0.979399
N5	N	0.808437	0.851253	0.704828
N6	N	0.560729	0.148857	0.206052
N7	N	0.686543	0.650310	0.705838
N8	N	0.938810	0.350928	0.208041
C25	C	0.788212	0.970050	0.521984
C26	C	0.538379	0.031106	0.022308
H12	H	0.737124	0.999575	0.443113
H13	H	0.986538	0.002692	0.943499
C27	C	0.890634	0.011770	0.546492
C28	C	0.640244	0.987744	0.046146
C29	C	0.951915	0.970202	0.650371
C30	C	0.702520	0.028353	0.149893
H14	H	0.532062	0.998805	0.673520
H15	H	0.782340	0.998665	0.172602
C31	C	0.708182	0.529704	0.526384
C32	C	0.958546	0.471409	0.027904
H16	H	0.758700	0.500895	0.449282
H17	H	0.508641	0.500397	0.950548
C33	C	0.745137	0.613331	0.606435
C34	C	0.996819	0.388677	0.108617
H18	H	0.822641	0.650506	0.592635
H19	H	0.574968	0.352851	0.095028
C35	C	0.749476	0.889206	0.603203
C36	C	0.501069	0.112232	0.104247
H20	H	0.922322	0.147732	0.089886
C37	C	0.907977	0.889383	0.727552
C38	C	0.659934	0.109547	0.227812
H21	H	0.953370	0.855173	0.808761
C39	C	0.588862	0.608983	0.727352
C40	C	0.840890	0.391633	0.229394
H22	H	0.796378	0.357526	0.309051
C41	C	0.546925	0.525079	0.651312
C42	C	0.797658	0.474711	0.152754
H23	H	0.968672	0.493231	0.673502
H24	H	0.718952	0.505201	0.175264
C43	C	0.608164	0.484270	0.550116
C44	C	0.857832	0.515656	0.050638
C45	C	0.933310	0.099319	0.466621
C46	C	0.681517	0.899720	0.965672
C47	C	0.567377	0.394474	0.470676
C48	C	0.816043	0.604172	0.969107
Pfg1	Pfg	0.490774	0.830776	0.868871
Cfg1	Cfg	0.393986	0.742854	0.954569
Hfg1	Hfg	0.375254	0.671665	0.893991
Hfg2	Hfg	0.319360	0.786653	0.976575
Hfg3	Hfg	0.431112	0.715734	0.047872
Cfg2	Cfg	0.479312	0.946047	0.983202
Hfg4	Hfg	0.524059	0.015904	0.946951
Hfg5	Hfg	0.513262	0.923045	0.079836
Hfg6	Hfg	0.394246	0.969078	0.993589
Pfg2	Pfg	0.244207	0.166841	0.368640
Cfg3	Cfg	0.148952	0.255664	0.455498
Hfg7	Hfg	0.130705	0.327206	0.395337
Hfg8	Hfg	0.073961	0.212673	0.477977
Hfg9	Hfg	0.186915	0.282136	0.548599
Cfg4	Cfg	0.232064	0.051439	0.482653
Hfg10	Hfg	0.275783	0.981159	0.445757
Hfg11	Hfg	0.266823	0.073821	0.579097
Hfg12	Hfg	0.146811	0.029361	0.493677
Pfg3	Pfg	0.380953	0.676915	0.575999
Cfg5	Cfg	0.385366	0.793974	0.689100
Hfg13	Hfg	0.393778	0.765847	0.791181
Hfg14	Hfg	0.312490	0.843954	0.677227
Hfg15	Hfg	0.455812	0.843929	0.666478
Cfg6	Cfg	0.341562	0.755185	0.427714
Hfg16	Hfg	0.324013	0.701160	0.344638
Hfg17	Hfg	0.408348	0.808798	0.401515
Hfg18	Hfg	0.269305	0.803795	0.446305
Pfg4	Pfg	0.259735	0.334147	0.368370
Cfg7	Cfg	0.339908	0.216031	0.424486
Hfg19	Hfg	0.414427	0.243260	0.474807
Hfg20	Hfg	0.359504	0.163198	0.341620
Hfg21	Hfg	0.292270	0.169338	0.494304
Cfg8	Cfg	0.161580	0.256082	0.266933
Hfg22	Hfg	0.107640	0.310317	0.211266
Hfg23	Hfg	0.112640	0.205625	0.331403
Hfg24	Hfg	0.203985	0.204278	0.197282
Pfg5	Pfg	0.610642	0.830508	0.570347
Cfg9	Cfg	0.588136	0.742585	0.714355
Hfg25	Hfg	0.640783	0.671443	0.709814
Hfg26	Hfg	0.603210	0.786410	0.806846
Hfg27	Hfg	0.503693	0.715389	0.712146
Cfg10	Cfg	0.530966	0.945716	0.631148
Hfg28	Hfg	0.538858	0.015571	0.565980
Hfg29	Hfg	0.445395	0.922637	0.633882
Hfg30	Hfg	0.559021	0.968785	0.730409
Pfg6	Pfg	0.743946	0.166357	0.369162
Cfg11	Cfg	0.663283	0.282211	0.426825
Hfg31	Hfg	0.590617	0.252952	0.475536
Hfg32	Hfg	0.640494	0.335915	0.344868
Hfg33	Hfg	0.712043	0.328682	0.498326
Cfg12	Cfg	0.837965	0.247604	0.270784
Hfg34	Hfg	0.891307	0.195148	0.214637
Hfg35	Hfg	0.887815	0.297940	0.337037
Hfg36	Hfg	0.792748	0.299686	0.201712
Pfg7	Pfg	0.506819	0.666683	0.865211
Cfg13	Cfg	0.585711	0.785911	0.920452
Hfg37	Hfg	0.660319	0.759713	0.971414
Hfg38	Hfg	0.605091	0.838342	0.837130
Hfg39	Hfg	0.537405	0.832651	0.989536
Cfg14	Cfg	0.408271	0.743141	0.762487
Hfg40	Hfg	0.355018	0.688032	0.707143
Hfg41	Hfg	0.358646	0.793596	0.826175
Hfg42	Hfg	0.450427	0.794843	0.692498
Pfg8	Pfg	0.133887	0.327482	0.078820
Cfg15	Cfg	0.140243	0.210889	0.192551
Hfg43	Hfg	0.147956	0.239495	0.294497
Hfg44	Hfg	0.068313	0.159555	0.180760
Hfg45	Hfg	0.211636	0.162152	0.170376
Cfg16	Cfg	0.096200	0.248030	0.930861
Hfg46	Hfg	0.077811	0.301458	0.847456
Hfg47	Hfg	0.164007	0.195556	0.905121
Hfg48	Hfg	0.024809	0.198175	0.949526

loop_
_geom_bond_atom_site_label_1
_geom_bond_atom_site_label_2
_geom_bond_distance
Ni1	O2	0.16599
Ni1	O4	0.16318
Ni1	O6	0.18273
Ni1	O8	0.18366
Ni1	N1	0.17612
Ni1	N3	0.17584
Ni2	O3	0.16282
Ni2	O5	0.18195
Ni2	N4	0.17757
Ni2	O9	0.16410
Ni2	O15	0.18358
Ni2	N6	0.17676
O1	C23	0.11387
O1	Ni4	0.16410
O2	C24	0.11378
O3	C21	0.11586
O4	C22	0.11585
O5	C47	0.10254
O6	C24	0.10252
O7	Ni4	0.18358
O7	C45	0.10305
O8	C22	0.10301
N1	C11	0.12347
N1	C13	0.10899
N2	C12	0.12355
N2	C14	0.10891
N2	Ni4	0.17676
N3	C9	0.12117
N3	C15	0.10822
N4	C10	0.12114
N4	C16	0.10817
C1	H1	0.09850
C1	C3	0.11328
C1	C11	0.12097
C2	C4	0.11325
C2	C12	0.12119
C2	H13	0.09852
H2	C26	0.09852
C3	C5	0.12757
C3	C21	0.12596
C4	C6	0.12764
C4	C22	0.12621
C5	C13	0.12008
C5	H14	0.08819
C6	H4	0.08814
C6	C14	0.12032
H3	C29	0.08819
C7	H5	0.09658
C7	C9	0.12152
C7	C19	0.11239
C8	C10	0.12175
C8	C20	0.11233
C8	H17	0.09661
H6	C32	0.09661
C9	Pfg3	0.15302
C10	H19	0.08704
C11	H7	0.08757
C12	H20	0.08756
H8	C36	0.08756
C13	Pfg1	0.17396
C14	Pfg2	0.17383
C15	H9	0.09732
C15	C17	0.12075
C16	C18	0.12102
C16	Pfg4	0.17090
C17	C19	0.12512
C17	H23	0.08735
C18	H11	0.08736
C18	C20	0.12540
H10	C41	0.08735
C19	C23	0.12664
C20	C24	0.12739
C21	O15	0.10305
C23	O13	0.10254
Ni3	O10	0.16599
Ni3	O12	0.16318
Ni3	O14	0.18273
Ni3	O16	0.18366
Ni3	N5	0.17612
Ni3	N7	0.17584
Ni4	O11	0.16282
Ni4	O13	0.18195
Ni4	N8	0.17757
O9	C47	0.11388
O10	C48	0.11378
O11	C45	0.11586
O12	C46	0.11585
O14	C48	0.10252
O16	C46	0.10301
N5	C35	0.12347
N5	C37	0.10899
N6	C36	0.12355
N6	C38	0.10891
N7	C33	0.12117
N7	C39	0.10822
N8	C34	0.12114
N8	C40	0.10817
C25	H12	0.09850
C25	C27	0.11328
C25	C35	0.12097
C26	C28	0.11325
C26	C36	0.12119
C27	C29	0.12757
C27	C45	0.12596
C28	C30	0.12764
C28	C46	0.12621
C29	C37	0.12008
C30	H15	0.08814
C30	C38	0.12032
C31	H16	0.09658
C31	C33	0.12152
C31	C43	0.11239
C32	C34	0.12175
C32	C44	0.11233
C33	H18	0.08706
C34	Pfg8	0.15304
C35	Pfg5	0.15427
C37	H21	0.09912
C38	Pfg6	0.17397
C39	C41	0.12075
C39	Pfg7	0.17049
C40	H22	0.09742
C40	C42	0.12102
C41	C43	0.12512
C42	H24	0.08736
C42	C44	0.12540
C43	C47	0.12664
C44	C48	0.12739
Pfg1	Cfg1	0.15634
Pfg1	Cfg2	0.16276
Cfg1	Hfg1	0.09533
Cfg1	Hfg2	0.08928
Cfg1	Hfg3	0.10402
Hfg1	Hfg2	0.15221
Hfg1	Hfg3	0.16953
Hfg2	Hfg3	0.15034
Cfg2	Hfg4	0.09053
Cfg2	Hfg5	0.10498
Cfg2	Hfg6	0.08874
Hfg4	Hfg5	0.16247
Hfg4	Hfg6	0.14567
Hfg5	Hfg6	0.15402
Pfg2	Cfg3	0.15655
Pfg2	Cfg4	0.16268
Cfg3	Hfg7	0.09524
Cfg3	Hfg8	0.08931
Cfg3	Hfg9	0.10397
Hfg7	Hfg8	0.15221
Hfg7	Hfg9	0.16935
Hfg8	Hfg9	0.15024
Cfg4	Hfg10	0.09062
Cfg4	Hfg11	0.10493
Cfg4	Hfg12	0.08875
Hfg10	Hfg11	0.16262
Hfg10	Hfg12	0.14579
Hfg11	Hfg12	0.15387
Pfg3	Cfg5	0.16283
Pfg3	Cfg6	0.17224
Cfg5	Hfg13	0.10622
Cfg5	Hfg14	0.08916
Cfg5	Hfg15	0.08927
Hfg13	Hfg14	0.16029
Hfg13	Hfg15	0.15967
Hfg14	Hfg15	0.14372
Cfg6	Hfg16	0.10064
Cfg6	Hfg17	0.08956
Cfg6	Hfg18	0.08905
Hfg16	Hfg17	0.14810
Hfg16	Hfg18	0.15448
Hfg17	Hfg18	0.14616
Pfg4	Cfg7	0.15339
Pfg4	Cfg8	0.16130
Cfg7	Hfg19	0.09395
Cfg7	Hfg20	0.10021
Cfg7	Hfg21	0.09656
Hfg19	Hfg20	0.16482
Hfg19	Hfg21	0.14411
Hfg20	Hfg21	0.16695
Cfg8	Hfg22	0.09460
Cfg8	Hfg23	0.09538
Cfg8	Hfg24	0.09661
Hfg22	Hfg23	0.15943
Hfg22	Hfg24	0.14395
Hfg23	Hfg24	0.16228
Pfg5	Cfg9	0.17022
Pfg5	Cfg10	0.15270
Cfg9	Hfg25	0.08862
Cfg9	Hfg26	0.10345
Cfg9	Hfg27	0.08874
Hfg25	Hfg26	0.15506
Hfg25	Hfg27	0.14398
Hfg26	Hfg27	0.15465
Cfg10	Hfg28	0.09586
Cfg10	Hfg29	0.08867
Cfg10	Hfg30	0.10570
Hfg28	Hfg29	0.14827
Hfg28	Hfg30	0.17214
Hfg29	Hfg30	0.15607
Pfg6	Cfg11	0.15249
Pfg6	Cfg12	0.15849
Cfg11	Hfg31	0.09225
Cfg11	Hfg32	0.10060
Cfg11	Hfg33	0.09823
Hfg31	Hfg32	0.16262
Hfg31	Hfg33	0.14491
Hfg32	Hfg33	0.16947
Cfg12	Hfg34	0.09354
Cfg12	Hfg35	0.09700
Cfg12	Hfg36	0.09761
Hfg34	Hfg35	0.15988
Hfg34	Hfg36	0.14425
Hfg35	Hfg36	0.16539
Pfg7	Cfg13	0.15327
Pfg7	Cfg14	0.16159
Cfg13	Hfg37	0.09407
Cfg13	Hfg38	0.10034
Cfg13	Hfg39	0.09639
Hfg37	Hfg38	0.16512
Hfg37	Hfg39	0.14407
Hfg38	Hfg39	0.16686
Cfg14	Hfg40	0.09453
Cfg14	Hfg41	0.09521
Cfg14	Hfg42	0.09669
Hfg40	Hfg41	0.15914
Hfg40	Hfg42	0.14396
Hfg41	Hfg42	0.16216
Pfg8	Cfg15	0.16300
Pfg8	Cfg16	0.17212
Cfg15	Hfg43	0.10616
Cfg15	Hfg44	0.08915
Cfg15	Hfg45	0.08924
Hfg43	Hfg44	0.16022
Hfg43	Hfg45	0.15951
Hfg44	Hfg45	0.14372
Cfg16	Hfg46	0.10074
Cfg16	Hfg47	0.08952
Cfg16	Hfg48	0.08905
Hfg46	Hfg47	0.14822
Hfg46	Hfg48	0.15458
Hfg47	Hfg48	0.14613
