data_NiPyC2_relax_sc211_NiPyC2_relax_sc211_aligned_O-CH2-CH3_NiPyC2_relax_sc211_aligned_O-CH2-CH3_NiPyC2_relax_sc211_aligned_O-CH2-CH3_NiPyC2_relax_sc211_aligned_O-CH2-CH3_NiPyC2_relax_sc211_aligned_O-CH2-CH3_NiPyC2_relax_sc211_aligned_O-CH2-CH3_NiPyC2_relax_sc211_aligned_O-CH2-CH3_NiPyC2_relax_sc211_aligned_O-CH2-CH3_PM
_symmetry_space_group_name_H-M	'P1'
_cell_length_a	12.505600
_cell_length_b	12.523400
_cell_length_c	10.276800
_cell_angle_alpha	90.000000
_cell_angle_beta	91.269000
_cell_angle_gamma	90.000000
_symmetry_Int_Tables_number 1

loop_
_symmetry_equiv_pos_as_xyz
'x,y,z'

loop_
_atom_site_label
_atom_site_type_symbol
_atom_site_fract_x
_atom_site_fract_y
_atom_site_fract_z
Ni1	Ni	0.247002	0.751486	0.836326
Ni2	Ni	0.499972	0.247999	0.339178
O1	O	0.122778	0.347689	0.382873
O2	O	0.371208	0.650977	0.881292
O3	O	0.377630	0.147507	0.377178
O4	O	0.125098	0.852352	0.876261
O5	O	0.473069	0.356160	0.482994
O6	O	0.221137	0.641415	0.979877
O7	O	0.028840	0.135158	0.481078
O8	O	0.276686	0.862758	0.979399
N1	N	0.308437	0.851253	0.704828
N2	N	0.060729	0.148857	0.206052
N3	N	0.186542	0.650310	0.705838
N4	N	0.438810	0.350928	0.208041
C1	C	0.288212	0.970050	0.521984
C2	C	0.038379	0.031106	0.022308
C3	C	0.390634	0.011770	0.546492
C4	C	0.140244	0.987744	0.046146
C5	C	0.451915	0.970202	0.650371
C6	C	0.202520	0.028353	0.149893
C7	C	0.208181	0.529704	0.526384
C8	C	0.458545	0.471409	0.027904
H1	H	0.258700	0.500895	0.449282
C9	C	0.245137	0.613331	0.606435
C10	C	0.496819	0.388677	0.108617
H2	H	0.322641	0.650506	0.592635
H3	H	0.074968	0.352851	0.095028
C11	C	0.249476	0.889206	0.603203
C12	C	0.001069	0.112232	0.104247
H4	H	0.170154	0.855123	0.588560
H5	H	0.422322	0.147732	0.089886
C13	C	0.407977	0.889383	0.727552
C14	C	0.159935	0.109547	0.227812
H6	H	0.453370	0.855173	0.808761
H7	H	0.206239	0.143103	0.308797
C15	C	0.088862	0.608983	0.727352
C16	C	0.340890	0.391633	0.229394
H8	H	0.043729	0.642944	0.806608
H9	H	0.296378	0.357526	0.309051
C17	C	0.046925	0.525079	0.651312
C18	C	0.297658	0.474711	0.152754
H10	H	0.218952	0.505201	0.175264
C19	C	0.108164	0.484270	0.550116
C20	C	0.357832	0.515656	0.050638
C21	C	0.433310	0.099319	0.466621
C22	C	0.181517	0.899720	0.965672
C23	C	0.067378	0.394474	0.470676
C24	C	0.316043	0.604172	0.969107
Ni3	Ni	0.747002	0.751486	0.836326
Ni4	Ni	0.999972	0.247999	0.339178
O9	O	0.622779	0.347689	0.382873
O10	O	0.871208	0.650977	0.881292
O11	O	0.877630	0.147507	0.377178
O12	O	0.625098	0.852352	0.876261
O13	O	0.973069	0.356160	0.482994
O14	O	0.721137	0.641415	0.979877
O15	O	0.528840	0.135158	0.481078
O16	O	0.776686	0.862758	0.979399
N5	N	0.808437	0.851253	0.704828
N6	N	0.560729	0.148857	0.206052
N7	N	0.686543	0.650310	0.705838
N8	N	0.938810	0.350928	0.208041
C25	C	0.788212	0.970050	0.521984
C26	C	0.538379	0.031106	0.022308
H11	H	0.737124	0.999575	0.443113
H12	H	0.986538	0.002692	0.943499
C27	C	0.890634	0.011770	0.546492
C28	C	0.640244	0.987744	0.046146
C29	C	0.951915	0.970202	0.650371
C30	C	0.702520	0.028353	0.149893
H13	H	0.532062	0.998805	0.673520
H14	H	0.782340	0.998665	0.172602
C31	C	0.708182	0.529704	0.526384
C32	C	0.958546	0.471409	0.027904
H15	H	0.758700	0.500895	0.449282
C33	C	0.745137	0.613331	0.606435
C34	C	0.996819	0.388677	0.108617
H16	H	0.822641	0.650506	0.592635
H17	H	0.574968	0.352851	0.095028
C35	C	0.749476	0.889206	0.603203
C36	C	0.501069	0.112232	0.104247
H18	H	0.670154	0.855123	0.588560
H19	H	0.922322	0.147732	0.089886
C37	C	0.907977	0.889383	0.727552
C38	C	0.659934	0.109547	0.227812
H20	H	0.953370	0.855173	0.808761
H21	H	0.706240	0.143103	0.308797
C39	C	0.588862	0.608983	0.727352
C40	C	0.840890	0.391633	0.229394
H22	H	0.543729	0.642944	0.806608
H23	H	0.796378	0.357526	0.309051
C41	C	0.546925	0.525079	0.651312
C42	C	0.797658	0.474711	0.152754
H24	H	0.718952	0.505201	0.175264
C43	C	0.608164	0.484270	0.550116
C44	C	0.857832	0.515656	0.050638
C45	C	0.933310	0.099319	0.466621
C46	C	0.681517	0.899720	0.965672
C47	C	0.567377	0.394474	0.470676
C48	C	0.816043	0.604172	0.969107
Ofg1	Ofg	0.227703	0.008468	0.419800
Cfg1	Cfg	0.125916	0.974742	0.384692
Cfg2	Cfg	0.086510	0.037170	0.266114
Hfg1	Hfg	0.126988	0.888288	0.360078
Hfg2	Hfg	0.070451	0.988918	0.466000
Hfg3	Hfg	0.140629	0.023687	0.183441
Hfg4	Hfg	0.004687	0.010397	0.237422
Hfg5	Hfg	0.084359	0.123843	0.288864
Ofg2	Ofg	0.302869	0.988766	0.173588
Cfg3	Cfg	0.372380	0.021422	0.272084
Cfg4	Cfg	0.475684	0.957813	0.265245
Hfg6	Hfg	0.391051	0.107697	0.260801
Hfg7	Hfg	0.335949	0.007405	0.368323
Hfg8	Hfg	0.513683	0.971117	0.169921
Hfg9	Hfg	0.531903	0.983724	0.344221
Hfg10	Hfg	0.458841	0.871297	0.276935
Ofg3	Ofg	0.948362	0.483001	0.674162
Cfg5	Cfg	0.880079	0.515613	0.770253
Cfg6	Cfg	0.778560	0.448824	0.763311
Hfg11	Hfg	0.858564	0.601030	0.755939
Hfg12	Hfg	0.919069	0.504704	0.867644
Hfg13	Hfg	0.738045	0.458992	0.666827
Hfg14	Hfg	0.723333	0.474684	0.840358
Hfg15	Hfg	0.798264	0.363120	0.778005
Ofg4	Ofg	0.518034	0.509319	0.927659
Cfg7	Cfg	0.618165	0.473234	0.894333
Cfg8	Cfg	0.656828	0.535880	0.777666
Hfg16	Hfg	0.675683	0.484997	0.977162
Hfg17	Hfg	0.614228	0.387122	0.868276
Hfg18	Hfg	0.661813	0.622203	0.801890
Hfg19	Hfg	0.737320	0.507215	0.750413
Hfg20	Hfg	0.600647	0.524790	0.693517
Ofg5	Ofg	0.052646	0.008511	0.674928
Cfg9	Cfg	0.121303	0.974757	0.773743
Cfg10	Cfg	0.225416	0.037132	0.767887
Hfg21	Hfg	0.138977	0.888293	0.762216
Hfg22	Hfg	0.084594	0.988959	0.869780
Hfg23	Hfg	0.263698	0.023622	0.672780
Hfg24	Hfg	0.280955	0.010336	0.847125
Hfg25	Hfg	0.209571	0.123814	0.779837
Ofg6	Ofg	0.477028	0.994030	0.920132
Cfg11	Cfg	0.375682	0.029426	0.885645
Cfg12	Cfg	0.335018	0.968078	0.766823
Hfg26	Hfg	0.320226	0.015757	0.967092
Hfg27	Hfg	0.378004	0.115952	0.861577
Hfg28	Hfg	0.331606	0.881357	0.789033
Hfg29	Hfg	0.253542	0.996196	0.738629
Hfg30	Hfg	0.389113	0.981079	0.684015
Ofg7	Ofg	0.448362	0.483002	0.674161
Cfg13	Cfg	0.380076	0.515618	0.770248
Cfg14	Cfg	0.278560	0.448824	0.763310
Hfg31	Hfg	0.419065	0.504714	0.867642
Hfg32	Hfg	0.358560	0.601032	0.755927
Hfg33	Hfg	0.298265	0.363122	0.778013
Hfg34	Hfg	0.223331	0.474688	0.840354
Hfg35	Hfg	0.238046	0.458985	0.666824
Ofg8	Ofg	0.018035	0.509320	0.927660
Cfg15	Cfg	0.118168	0.473239	0.894339
Cfg16	Cfg	0.156830	0.535882	0.777669
Hfg36	Hfg	0.114237	0.387125	0.868286
Hfg37	Hfg	0.175684	0.485007	0.977168
Hfg38	Hfg	0.100652	0.524785	0.693519
Hfg39	Hfg	0.237324	0.507220	0.750419
Hfg40	Hfg	0.161809	0.622206	0.801887

loop_
_geom_bond_atom_site_label_1
_geom_bond_atom_site_label_2
_geom_bond_distance
Ni1	O2	0.16599
Ni1	O4	0.16318
Ni1	O6	0.18273
Ni1	O8	0.18366
Ni1	N1	0.17612
Ni1	N3	0.17584
Ni2	O3	0.16282
Ni2	O5	0.18195
Ni2	N4	0.17757
Ni2	O9	0.16410
Ni2	O15	0.18358
Ni2	N6	0.17676
O1	C23	0.11387
O1	Ni4	0.16410
O2	C24	0.11378
O3	C21	0.11586
O4	C22	0.11585
O5	C47	0.10254
O6	C24	0.10252
O7	Ni4	0.18358
O7	C45	0.10305
O8	C22	0.10301
N1	C11	0.12347
N1	C13	0.10899
N2	C12	0.12355
N2	C14	0.10891
N2	Ni4	0.17676
N3	C9	0.12117
N3	C15	0.10822
N4	C10	0.12114
N4	C16	0.10817
C1	C3	0.11328
C1	C11	0.12097
C1	Ofg1	0.12482
C2	C4	0.11325
C2	C12	0.12119
C2	H12	0.09852
C3	C5	0.12757
C3	C21	0.12596
C4	C6	0.12764
C4	C22	0.12621
C5	C13	0.12008
C5	H13	0.08819
C6	C14	0.12032
C6	Ofg2	0.11045
C7	H1	0.09658
C7	C9	0.12152
C7	C19	0.11239
C8	C10	0.12175
C8	C20	0.11233
C8	Ofg4	0.12258
C9	H2	0.08706
C10	H17	0.08704
H3	C34	0.08704
C11	H4	0.08757
C12	H19	0.08756
H5	C36	0.08756
C13	H6	0.09912
C14	H7	0.09914
C15	H8	0.09732
C15	C17	0.12075
C16	H9	0.09742
C16	C18	0.12102
C17	C19	0.12512
C17	Ofg3	0.10958
C18	H10	0.08736
C18	C20	0.12540
C19	C23	0.12664
C20	C24	0.12739
C21	O15	0.10305
C23	O13	0.10254
Ni3	O10	0.16599
Ni3	O12	0.16318
Ni3	O14	0.18273
Ni3	O16	0.18366
Ni3	N5	0.17612
Ni3	N7	0.17584
Ni4	O11	0.16282
Ni4	O13	0.18195
Ni4	N8	0.17757
O9	C47	0.11388
O10	C48	0.11378
O11	C45	0.11586
O12	C46	0.11585
O14	C48	0.10252
O16	C46	0.10301
N5	C35	0.12347
N5	C37	0.10899
N6	C36	0.12355
N6	C38	0.10891
N7	C33	0.12117
N7	C39	0.10822
N8	C34	0.12114
N8	C40	0.10817
C25	H11	0.09850
C25	C27	0.11328
C25	C35	0.12097
C26	C28	0.11325
C26	C36	0.12119
C26	Ofg6	0.12481
C27	C29	0.12757
C27	C45	0.12596
C28	C30	0.12764
C28	C46	0.12621
C29	C37	0.12008
C29	Ofg5	0.11053
C30	H14	0.08814
C30	C38	0.12032
C31	H15	0.09658
C31	C33	0.12152
C31	C43	0.11239
C32	C34	0.12175
C32	C44	0.11233
C32	Ofg8	0.12258
C33	H16	0.08706
C35	H18	0.08757
C37	H20	0.09912
C38	H21	0.09914
C39	H22	0.09732
C39	C41	0.12075
C40	H23	0.09742
C40	C42	0.12102
C41	C43	0.12512
C41	Ofg7	0.10958
C42	H24	0.08736
C42	C44	0.12540
C43	C47	0.12664
C44	C48	0.12739
Ofg1	Cfg1	0.11283
Cfg1	Cfg2	0.13968
Cfg1	Hfg1	0.08990
Cfg1	Hfg2	0.09944
Cfg2	Hfg3	0.09973
Cfg2	Hfg4	0.09075
Cfg2	Hfg5	0.08964
Hfg1	Hfg2	0.15666
Hfg3	Hfg4	0.14687
Hfg3	Hfg5	0.15592
Hfg4	Hfg5	0.14787
Ofg2	Cfg3	0.12490
Cfg3	Cfg4	0.12151
Cfg3	Hfg6	0.08899
Cfg3	Hfg7	0.10385
Cfg4	Hfg8	0.10348
Cfg4	Hfg9	0.10035
Cfg4	Hfg10	0.08891
Hfg6	Hfg7	0.15702
Hfg8	Hfg9	0.17570
Hfg8	Hfg10	0.15628
Hfg9	Hfg10	0.15002
Ofg3	Cfg5	0.12231
Cfg5	Cfg6	0.12172
Cfg5	Hfg11	0.08924
Cfg5	Hfg12	0.10547
Cfg6	Hfg13	0.10514
Cfg6	Hfg14	0.09826
Cfg6	Hfg15	0.08916
Hfg11	Hfg12	0.15943
Hfg13	Hfg14	0.17486
Hfg13	Hfg15	0.15868
Hfg14	Hfg15	0.14815
Ofg4	Cfg7	0.11153
Cfg7	Cfg8	0.13795
Cfg7	Hfg16	0.10153
Cfg7	Hfg17	0.09005
Cfg8	Hfg18	0.08980
Cfg8	Hfg19	0.08968
Cfg8	Hfg20	0.10179
Hfg16	Hfg17	0.15878
Hfg18	Hfg19	0.14688
Hfg18	Hfg20	0.15804
Hfg19	Hfg20	0.14908
Ofg5	Cfg9	0.12497
Cfg9	Cfg10	0.12151
Cfg9	Hfg21	0.08900
Cfg9	Hfg22	0.10379
Cfg10	Hfg23	0.10341
Cfg10	Hfg24	0.10040
Cfg10	Hfg25	0.08893
Hfg21	Hfg22	0.15704
Hfg23	Hfg24	0.17570
Hfg23	Hfg25	0.15630
Hfg24	Hfg25	0.15000
Ofg6	Cfg11	0.11275
Cfg11	Cfg12	0.13977
Cfg11	Hfg26	0.09948
Cfg11	Hfg27	0.08984
Cfg12	Hfg28	0.08959
Cfg12	Hfg29	0.09069
Cfg12	Hfg30	0.09976
Hfg26	Hfg27	0.15656
Hfg28	Hfg29	0.14773
Hfg28	Hfg30	0.15582
Hfg29	Hfg30	0.14694
Ofg7	Cfg13	0.12231
Cfg13	Cfg14	0.12172
Cfg13	Hfg31	0.10547
Cfg13	Hfg32	0.08924
Cfg14	Hfg33	0.08916
Cfg14	Hfg34	0.09826
Cfg14	Hfg35	0.10514
Hfg31	Hfg32	0.15943
Hfg33	Hfg34	0.14815
Hfg33	Hfg35	0.15868
Hfg34	Hfg35	0.17486
Ofg8	Cfg15	0.11153
Cfg15	Cfg16	0.13795
Cfg15	Hfg36	0.09005
Cfg15	Hfg37	0.10152
Cfg16	Hfg38	0.10179
Cfg16	Hfg39	0.08968
Cfg16	Hfg40	0.08980
Hfg36	Hfg37	0.15878
Hfg38	Hfg39	0.14908
Hfg38	Hfg40	0.15803
Hfg39	Hfg40	0.14688
