data_NiPyC2_relax_sc211_NiPyC2_relax_sc211_aligned_O-CH2-CH2-CH3_NiPyC2_relax_sc211_aligned_O-CH2-CH2-CH3_NiPyC2_relax_sc211_aligned_O-CH2-CH2-CH3_NiPyC2_relax_sc211_aligned_O-CH2-CH2-CH3_NiPyC2_relax_sc211_aligned_O-CH2-CH2-CH3_NiPyC2_relax_sc211_aligned_O-CH2-CH2-CH3_NiPyC2_relax_sc211_aligned_O-CH2-CH2-CH3_NiPyC2_relax_sc211_aligned_O-CH2-CH2-CH3_PM
_symmetry_space_group_name_H-M	'P1'
_cell_length_a	12.505600
_cell_length_b	12.523400
_cell_length_c	10.276800
_cell_angle_alpha	90.000000
_cell_angle_beta	91.269000
_cell_angle_gamma	90.000000
_symmetry_Int_Tables_number 1

loop_
_symmetry_equiv_pos_as_xyz
'x,y,z'

loop_
_atom_site_label
_atom_site_type_symbol
_atom_site_fract_x
_atom_site_fract_y
_atom_site_fract_z
Ni1	Ni	0.247002	0.751486	0.836326
Ni2	Ni	0.499972	0.247999	0.339178
O1	O	0.122778	0.347689	0.382873
O2	O	0.371208	0.650977	0.881292
O3	O	0.377630	0.147507	0.377178
O4	O	0.125098	0.852352	0.876261
O5	O	0.473069	0.356160	0.482994
O6	O	0.221137	0.641415	0.979877
O7	O	0.028840	0.135158	0.481078
O8	O	0.276686	0.862758	0.979399
N1	N	0.308437	0.851253	0.704828
N2	N	0.060729	0.148857	0.206052
N3	N	0.186542	0.650310	0.705838
N4	N	0.438810	0.350928	0.208041
C1	C	0.288212	0.970050	0.521984
C2	C	0.038379	0.031106	0.022308
H1	H	0.237124	0.999575	0.443113
H2	H	0.486538	0.002692	0.943499
C3	C	0.390634	0.011770	0.546492
C4	C	0.140244	0.987744	0.046146
C5	C	0.451915	0.970202	0.650371
C6	C	0.202520	0.028353	0.149893
H3	H	0.032063	0.998805	0.673520
C7	C	0.208181	0.529704	0.526384
C8	C	0.458545	0.471409	0.027904
H4	H	0.258700	0.500895	0.449282
C9	C	0.245137	0.613331	0.606435
C10	C	0.496819	0.388677	0.108617
H5	H	0.322641	0.650506	0.592635
H6	H	0.074968	0.352851	0.095028
C11	C	0.249476	0.889206	0.603203
C12	C	0.001069	0.112232	0.104247
H7	H	0.170154	0.855123	0.588560
H8	H	0.422322	0.147732	0.089886
C13	C	0.407977	0.889383	0.727552
C14	C	0.159935	0.109547	0.227812
H9	H	0.453370	0.855173	0.808761
H10	H	0.206239	0.143103	0.308797
C15	C	0.088862	0.608983	0.727352
C16	C	0.340890	0.391633	0.229394
H11	H	0.043729	0.642944	0.806608
H12	H	0.296378	0.357526	0.309051
C17	C	0.046925	0.525079	0.651312
C18	C	0.297658	0.474711	0.152754
C19	C	0.108164	0.484270	0.550116
C20	C	0.357832	0.515656	0.050638
C21	C	0.433310	0.099319	0.466621
C22	C	0.181517	0.899720	0.965672
C23	C	0.067378	0.394474	0.470676
C24	C	0.316043	0.604172	0.969107
Ni3	Ni	0.747002	0.751486	0.836326
Ni4	Ni	0.999972	0.247999	0.339178
O9	O	0.622779	0.347689	0.382873
O10	O	0.871208	0.650977	0.881292
O11	O	0.877630	0.147507	0.377178
O12	O	0.625098	0.852352	0.876261
O13	O	0.973069	0.356160	0.482994
O14	O	0.721137	0.641415	0.979877
O15	O	0.528840	0.135158	0.481078
O16	O	0.776686	0.862758	0.979399
N5	N	0.808437	0.851253	0.704828
N6	N	0.560729	0.148857	0.206052
N7	N	0.686543	0.650310	0.705838
N8	N	0.938810	0.350928	0.208041
C25	C	0.788212	0.970050	0.521984
C26	C	0.538379	0.031106	0.022308
H13	H	0.986538	0.002692	0.943499
C27	C	0.890634	0.011770	0.546492
C28	C	0.640244	0.987744	0.046146
C29	C	0.951915	0.970202	0.650371
C30	C	0.702520	0.028353	0.149893
C31	C	0.708182	0.529704	0.526384
C32	C	0.958546	0.471409	0.027904
H14	H	0.758700	0.500895	0.449282
H15	H	0.508641	0.500397	0.950548
C33	C	0.745137	0.613331	0.606435
C34	C	0.996819	0.388677	0.108617
H16	H	0.822641	0.650506	0.592635
H17	H	0.574968	0.352851	0.095028
C35	C	0.749476	0.889206	0.603203
C36	C	0.501069	0.112232	0.104247
H18	H	0.670154	0.855123	0.588560
H19	H	0.922322	0.147732	0.089886
C37	C	0.907977	0.889383	0.727552
C38	C	0.659934	0.109547	0.227812
H20	H	0.953370	0.855173	0.808761
H21	H	0.706240	0.143103	0.308797
C39	C	0.588862	0.608983	0.727352
C40	C	0.840890	0.391633	0.229394
H22	H	0.543729	0.642944	0.806608
H23	H	0.796378	0.357526	0.309051
C41	C	0.546925	0.525079	0.651312
C42	C	0.797658	0.474711	0.152754
H24	H	0.718952	0.505201	0.175264
C43	C	0.608164	0.484270	0.550116
C44	C	0.857832	0.515656	0.050638
C45	C	0.933310	0.099319	0.466621
C46	C	0.681517	0.899720	0.965672
C47	C	0.567377	0.394474	0.470676
C48	C	0.816043	0.604172	0.969107
Ofg1	Ofg	0.552643	0.008518	0.674916
Cfg1	Cfg	0.621343	0.974809	0.773717
Cfg2	Cfg	0.725775	0.037674	0.767430
Hfg1	Hfg	0.638547	0.888225	0.761942
Hfg2	Hfg	0.584137	0.988942	0.869540
Cfg3	Cfg	0.804578	0.003286	0.874904
Hfg3	Hfg	0.708635	0.124299	0.778186
Hfg4	Hfg	0.762663	0.024286	0.671346
Hfg5	Hfg	0.770024	0.017451	0.972056
Hfg6	Hfg	0.879505	0.050293	0.867781
Hfg7	Hfg	0.824184	0.917194	0.864959
Ofg2	Ofg	0.302867	0.988760	0.173575
Cfg4	Cfg	0.372427	0.021385	0.272041
Cfg5	Cfg	0.476038	0.957277	0.264773
Hfg8	Hfg	0.335508	0.007463	0.368080
Hfg9	Hfg	0.390630	0.107783	0.260488
Cfg6	Cfg	0.555753	0.990444	0.371837
Hfg10	Hfg	0.512629	0.970453	0.168472
Hfg11	Hfg	0.457893	0.870838	0.275312
Hfg12	Hfg	0.576361	0.076317	0.362086
Hfg13	Hfg	0.630054	0.942550	0.364004
Hfg14	Hfg	0.521492	0.976461	0.469187
Ofg3	Ofg	0.948365	0.482994	0.674151
Cfg7	Cfg	0.880041	0.515559	0.770228
Cfg8	Cfg	0.778216	0.448259	0.762859
Hfg15	Hfg	0.858986	0.601112	0.755675
Hfg16	Hfg	0.919520	0.504736	0.867416
Cfg9	Cfg	0.699921	0.481234	0.867323
Hfg17	Hfg	0.799190	0.362644	0.776391
Hfg18	Hfg	0.739081	0.458346	0.665438
Hfg19	Hfg	0.736775	0.470291	0.965771
Hfg20	Hfg	0.626899	0.431000	0.859475
Hfg21	Hfg	0.676520	0.566227	0.854549
Ofg4	Ofg	0.198735	0.515827	0.176045
Cfg10	Cfg	0.131300	0.483068	0.272959
Cfg11	Cfg	0.028703	0.549200	0.265805
Hfg22	Hfg	0.171161	0.494885	0.369750
Hfg23	Hfg	0.111136	0.397208	0.259322
Cfg12	Cfg	0.951343	0.515963	0.371181
Hfg24	Hfg	0.989178	0.538126	0.168771
Hfg25	Hfg	0.048781	0.635116	0.278428
Hfg26	Hfg	0.928835	0.430646	0.359328
Hfg27	Hfg	0.877733	0.565345	0.363471
Hfg28	Hfg	0.988583	0.527870	0.469253
Ofg5	Ofg	0.727713	0.008475	0.419798
Cfg13	Cfg	0.625918	0.974794	0.384637
Cfg14	Cfg	0.586697	0.037713	0.265521
Hfg29	Hfg	0.627370	0.888219	0.360443
Hfg30	Hfg	0.570820	0.988901	0.466408
Cfg15	Cfg	0.474257	0.003357	0.222731
Hfg31	Hfg	0.585971	0.124328	0.289215
Hfg32	Hfg	0.642122	0.024351	0.183994
Hfg33	Hfg	0.417063	0.017498	0.302104
Hfg34	Hfg	0.448045	0.050403	0.136174
Hfg35	Hfg	0.473349	0.917276	0.196627
Ofg6	Ofg	0.802867	0.988760	0.173576
Cfg16	Cfg	0.872427	0.021386	0.272042
Cfg17	Cfg	0.976038	0.957278	0.264774
Hfg36	Hfg	0.835507	0.007463	0.368080
Hfg37	Hfg	0.890630	0.107784	0.260489
Cfg18	Cfg	0.055753	0.990446	0.371838
Hfg38	Hfg	0.012629	0.970455	0.168473
Hfg39	Hfg	0.957894	0.870840	0.275313
Hfg40	Hfg	0.076360	0.076319	0.362086
Hfg41	Hfg	0.130054	0.942553	0.364005
Hfg42	Hfg	0.021492	0.976463	0.469188
Ofg7	Ofg	0.448365	0.482994	0.674151
Cfg19	Cfg	0.380041	0.515559	0.770228
Cfg20	Cfg	0.278216	0.448259	0.762859
Hfg43	Hfg	0.358986	0.601112	0.755675
Hfg44	Hfg	0.419520	0.504736	0.867416
Cfg21	Cfg	0.199921	0.481234	0.867323
Hfg45	Hfg	0.299190	0.362644	0.776391
Hfg46	Hfg	0.239081	0.458346	0.665438
Hfg47	Hfg	0.236775	0.470291	0.965771
Hfg48	Hfg	0.126899	0.431000	0.859475
Hfg49	Hfg	0.176520	0.566227	0.854549
Ofg8	Ofg	0.018025	0.509328	0.927659
Cfg22	Cfg	0.118166	0.473292	0.894285
Cfg23	Cfg	0.156646	0.536436	0.777081
Hfg50	Hfg	0.113860	0.387063	0.868642
Hfg51	Hfg	0.175324	0.484995	0.977568
Cfg24	Cfg	0.267257	0.499522	0.736312
Hfg52	Hfg	0.160218	0.622731	0.802209
Hfg53	Hfg	0.099188	0.525483	0.694048
Hfg54	Hfg	0.326460	0.511228	0.817244
Hfg55	Hfg	0.292966	0.546792	0.651113
Hfg56	Hfg	0.265284	0.413743	0.708821

loop_
_geom_bond_atom_site_label_1
_geom_bond_atom_site_label_2
_geom_bond_distance
Ni1	O2	0.16599
Ni1	O4	0.16318
Ni1	O6	0.18273
Ni1	O8	0.18366
Ni1	N1	0.17612
Ni1	N3	0.17584
Ni2	O3	0.16282
Ni2	O5	0.18195
Ni2	N4	0.17757
Ni2	O9	0.16410
Ni2	O15	0.18358
Ni2	N6	0.17676
O1	C23	0.11387
O1	Ni4	0.16410
O2	C24	0.11378
O3	C21	0.11586
O4	C22	0.11585
O5	C47	0.10254
O6	C24	0.10252
O7	Ni4	0.18358
O7	C45	0.10305
O8	C22	0.10301
N1	C11	0.12347
N1	C13	0.10899
N2	C12	0.12355
N2	C14	0.10891
N2	Ni4	0.17676
N3	C9	0.12117
N3	C15	0.10822
N4	C10	0.12114
N4	C16	0.10817
C1	H1	0.09850
C1	C3	0.11328
C1	C11	0.12097
C2	C4	0.11325
C2	C12	0.12119
C2	H13	0.09852
H2	C26	0.09852
C3	C5	0.12757
C3	C21	0.12596
C4	C6	0.12764
C4	C22	0.12621
C5	C13	0.12008
C5	Ofg1	0.11053
C6	C14	0.12032
C6	Ofg2	0.11044
H3	C29	0.08819
C7	H4	0.09658
C7	C9	0.12152
C7	C19	0.11239
C8	C10	0.12175
C8	C20	0.11233
C8	H15	0.09661
C9	H5	0.08706
C10	H17	0.08704
H6	C34	0.08704
C11	H7	0.08757
C12	H19	0.08756
H8	C36	0.08756
C13	H9	0.09912
C14	H10	0.09914
C15	H11	0.09732
C15	C17	0.12075
C16	H12	0.09742
C16	C18	0.12102
C17	C19	0.12512
C17	Ofg3	0.10958
C18	C20	0.12540
C18	Ofg4	0.10963
C19	C23	0.12664
C20	C24	0.12739
C21	O15	0.10305
C23	O13	0.10254
Ni3	O10	0.16599
Ni3	O12	0.16318
Ni3	O14	0.18273
Ni3	O16	0.18366
Ni3	N5	0.17612
Ni3	N7	0.17584
Ni4	O11	0.16282
Ni4	O13	0.18195
Ni4	N8	0.17757
O9	C47	0.11388
O10	C48	0.11378
O11	C45	0.11586
O12	C46	0.11585
O14	C48	0.10252
O16	C46	0.10301
N5	C35	0.12347
N5	C37	0.10899
N6	C36	0.12355
N6	C38	0.10891
N7	C33	0.12117
N7	C39	0.10822
N8	C34	0.12114
N8	C40	0.10817
C25	C27	0.11328
C25	C35	0.12097
C25	Ofg5	0.12481
C26	C28	0.11325
C26	C36	0.12119
C27	C29	0.12757
C27	C45	0.12596
C28	C30	0.12764
C28	C46	0.12621
C29	C37	0.12008
C30	C38	0.12032
C30	Ofg6	0.11044
C31	H14	0.09658
C31	C33	0.12152
C31	C43	0.11239
C32	C34	0.12175
C32	C44	0.11233
C32	Ofg8	0.12258
C33	H16	0.08706
C35	H18	0.08757
C37	H20	0.09912
C38	H21	0.09914
C39	H22	0.09732
C39	C41	0.12075
C40	H23	0.09742
C40	C42	0.12102
C41	C43	0.12512
C41	Ofg7	0.10958
C42	H24	0.08736
C42	C44	0.12540
C43	C47	0.12664
C44	C48	0.12739
Ofg1	Cfg1	0.12497
Cfg1	Cfg2	0.12206
Cfg1	Hfg1	0.08906
Cfg1	Hfg2	0.10376
Cfg2	Cfg3	0.13763
Cfg2	Hfg3	0.08896
Cfg2	Hfg4	0.10379
Hfg1	Hfg2	0.15710
Cfg3	Hfg5	0.10408
Cfg3	Hfg6	0.08874
Cfg3	Hfg7	0.08885
Hfg3	Hfg4	0.15600
Hfg5	Hfg6	0.15472
Hfg5	Hfg7	0.15638
Hfg6	Hfg7	0.14417
Ofg2	Cfg4	0.12489
Cfg4	Cfg5	0.12206
Cfg4	Hfg8	0.10383
Cfg4	Hfg9	0.08905
Cfg5	Cfg6	0.13754
Cfg5	Hfg10	0.10386
Cfg5	Hfg11	0.08895
Hfg8	Hfg9	0.15709
Cfg6	Hfg12	0.08885
Cfg6	Hfg13	0.08875
Cfg6	Hfg14	0.10415
Hfg10	Hfg11	0.15599
Hfg12	Hfg13	0.14415
Hfg12	Hfg14	0.15637
Hfg13	Hfg14	0.15492
Ofg3	Cfg7	0.12231
Cfg7	Cfg8	0.12228
Cfg7	Hfg15	0.08930
Cfg7	Hfg16	0.10546
Cfg8	Cfg9	0.13465
Cfg8	Hfg17	0.08918
Cfg8	Hfg18	0.10547
Hfg15	Hfg16	0.15949
Cfg9	Hfg19	0.10569
Cfg9	Hfg20	0.08898
Cfg9	Hfg21	0.08908
Hfg17	Hfg18	0.15837
Hfg19	Hfg20	0.15785
Hfg19	Hfg21	0.15876
Hfg20	Hfg21	0.14413
Ofg4	Cfg10	0.12253
Cfg10	Cfg11	0.12227
Cfg10	Hfg22	0.10534
Cfg10	Hfg23	0.08924
Cfg11	Cfg12	0.13488
Cfg11	Hfg24	0.10536
Cfg11	Hfg25	0.08913
Hfg22	Hfg23	0.15918
Cfg12	Hfg26	0.08903
Cfg12	Hfg27	0.08898
Cfg12	Hfg28	0.10558
Hfg24	Hfg25	0.15806
Hfg26	Hfg27	0.14413
Hfg26	Hfg28	0.15845
Hfg27	Hfg28	0.15774
Ofg5	Cfg13	0.11284
Cfg13	Cfg14	0.14031
Cfg13	Hfg29	0.08990
Cfg13	Hfg30	0.09961
Cfg14	Cfg15	0.12512
Cfg14	Hfg31	0.08980
Cfg14	Hfg32	0.09948
Hfg29	Hfg30	0.15673
Cfg15	Hfg33	0.09885
Cfg15	Hfg34	0.10194
Cfg15	Hfg35	0.08996
Hfg31	Hfg32	0.15563
Hfg33	Hfg34	0.17197
Hfg33	Hfg35	0.15601
Hfg34	Hfg35	0.14838
Ofg6	Cfg16	0.12489
Cfg16	Cfg17	0.12206
Cfg16	Hfg36	0.10383
Cfg16	Hfg37	0.08905
Cfg17	Cfg18	0.13754
Cfg17	Hfg38	0.10386
Cfg17	Hfg39	0.08895
Hfg36	Hfg37	0.15709
Cfg18	Hfg40	0.08885
Cfg18	Hfg41	0.08875
Cfg18	Hfg42	0.10415
Hfg38	Hfg39	0.15599
Hfg40	Hfg41	0.14415
Hfg40	Hfg42	0.15637
Hfg41	Hfg42	0.15492
Ofg7	Cfg19	0.12231
Cfg19	Cfg20	0.12228
Cfg19	Hfg43	0.08930
Cfg19	Hfg44	0.10546
Cfg20	Cfg21	0.13465
Cfg20	Hfg45	0.08918
Cfg20	Hfg46	0.10547
Hfg43	Hfg44	0.15949
Cfg21	Hfg47	0.10569
Cfg21	Hfg48	0.08898
Cfg21	Hfg49	0.08908
Hfg45	Hfg46	0.15837
Hfg47	Hfg48	0.15785
Hfg47	Hfg49	0.15876
Hfg48	Hfg49	0.14413
Ofg8	Cfg22	0.11154
Cfg22	Cfg23	0.13858
Cfg22	Hfg50	0.09006
Cfg22	Hfg51	0.10169
Cfg23	Cfg24	0.12353
Cfg23	Hfg52	0.08995
Hfg50	Hfg51	0.15885
