data_NiPyC2_relax_sc211_NiPyC2_relax_sc211_aligned_N-2CH3_NiPyC2_relax_sc211_aligned_N-2CH3_NiPyC2_relax_sc211_aligned_N-2CH3_NiPyC2_relax_sc211_aligned_N-2CH3_NiPyC2_relax_sc211_aligned_N-2CH3_NiPyC2_relax_sc211_aligned_N-2CH3_NiPyC2_relax_sc211_aligned_N-2CH3_NiPyC2_relax_sc211_aligned_N-2CH3_PM
_symmetry_space_group_name_H-M	'P1'
_cell_length_a	12.505600
_cell_length_b	12.523400
_cell_length_c	10.276800
_cell_angle_alpha	90.000000
_cell_angle_beta	91.269000
_cell_angle_gamma	90.000000
_symmetry_Int_Tables_number 1

loop_
_symmetry_equiv_pos_as_xyz
'x,y,z'

loop_
_atom_site_label
_atom_site_type_symbol
_atom_site_fract_x
_atom_site_fract_y
_atom_site_fract_z
Ni1	Ni	0.247002	0.751486	0.836326
Ni2	Ni	0.499972	0.247999	0.339178
O1	O	0.122778	0.347689	0.382873
O2	O	0.371208	0.650977	0.881292
O3	O	0.377630	0.147507	0.377178
O4	O	0.125098	0.852352	0.876261
O5	O	0.473069	0.356160	0.482994
O6	O	0.221137	0.641415	0.979877
O7	O	0.028840	0.135158	0.481078
O8	O	0.276686	0.862758	0.979399
N1	N	0.308437	0.851253	0.704828
N2	N	0.060729	0.148857	0.206052
N3	N	0.186542	0.650310	0.705838
N4	N	0.438810	0.350928	0.208041
C1	C	0.288212	0.970050	0.521984
C2	C	0.038379	0.031106	0.022308
H1	H	0.237124	0.999575	0.443113
H2	H	0.486538	0.002692	0.943499
C3	C	0.390634	0.011770	0.546492
C4	C	0.140244	0.987744	0.046146
C5	C	0.451915	0.970202	0.650371
C6	C	0.202520	0.028353	0.149893
H3	H	0.032063	0.998805	0.673520
H4	H	0.282340	0.998665	0.172602
C7	C	0.208181	0.529704	0.526384
C8	C	0.458545	0.471409	0.027904
H5	H	0.258700	0.500895	0.449282
H6	H	0.008641	0.500397	0.950548
C9	C	0.245137	0.613331	0.606435
C10	C	0.496819	0.388677	0.108617
H7	H	0.322641	0.650506	0.592635
H8	H	0.074968	0.352851	0.095028
C11	C	0.249476	0.889206	0.603203
C12	C	0.001069	0.112232	0.104247
H9	H	0.170154	0.855123	0.588560
C13	C	0.407977	0.889383	0.727552
C14	C	0.159935	0.109547	0.227812
H10	H	0.206239	0.143103	0.308797
C15	C	0.088862	0.608983	0.727352
C16	C	0.340890	0.391633	0.229394
H11	H	0.296378	0.357526	0.309051
C17	C	0.046925	0.525079	0.651312
C18	C	0.297658	0.474711	0.152754
H12	H	0.468672	0.493231	0.673502
H13	H	0.218952	0.505201	0.175264
C19	C	0.108164	0.484270	0.550116
C20	C	0.357832	0.515656	0.050638
C21	C	0.433310	0.099319	0.466621
C22	C	0.181517	0.899720	0.965672
C23	C	0.067378	0.394474	0.470676
C24	C	0.316043	0.604172	0.969107
Ni3	Ni	0.747002	0.751486	0.836326
Ni4	Ni	0.999972	0.247999	0.339178
O9	O	0.622779	0.347689	0.382873
O10	O	0.871208	0.650977	0.881292
O11	O	0.877630	0.147507	0.377178
O12	O	0.625098	0.852352	0.876261
O13	O	0.973069	0.356160	0.482994
O14	O	0.721137	0.641415	0.979877
O15	O	0.528840	0.135158	0.481078
O16	O	0.776686	0.862758	0.979399
N5	N	0.808437	0.851253	0.704828
N6	N	0.560729	0.148857	0.206052
N7	N	0.686543	0.650310	0.705838
N8	N	0.938810	0.350928	0.208041
C25	C	0.788212	0.970050	0.521984
C26	C	0.538379	0.031106	0.022308
H14	H	0.737124	0.999575	0.443113
H15	H	0.986538	0.002692	0.943499
C27	C	0.890634	0.011770	0.546492
C28	C	0.640244	0.987744	0.046146
C29	C	0.951915	0.970202	0.650371
C30	C	0.702520	0.028353	0.149893
H16	H	0.532062	0.998805	0.673520
H17	H	0.782340	0.998665	0.172602
C31	C	0.708182	0.529704	0.526384
C32	C	0.958546	0.471409	0.027904
H18	H	0.758700	0.500895	0.449282
H19	H	0.508641	0.500397	0.950548
C33	C	0.745137	0.613331	0.606435
C34	C	0.996819	0.388677	0.108617
C35	C	0.749476	0.889206	0.603203
C36	C	0.501069	0.112232	0.104247
H20	H	0.670154	0.855123	0.588560
C37	C	0.907977	0.889383	0.727552
C38	C	0.659934	0.109547	0.227812
H21	H	0.706240	0.143103	0.308797
C39	C	0.588862	0.608983	0.727352
C40	C	0.840890	0.391633	0.229394
H22	H	0.543729	0.642944	0.806608
C41	C	0.546925	0.525079	0.651312
C42	C	0.797658	0.474711	0.152754
H23	H	0.968672	0.493231	0.673502
H24	H	0.718952	0.505201	0.175264
C43	C	0.608164	0.484270	0.550116
C44	C	0.857832	0.515656	0.050638
C45	C	0.933310	0.099319	0.466621
C46	C	0.681517	0.899720	0.965672
C47	C	0.567377	0.394474	0.470676
C48	C	0.816043	0.604172	0.969107
Nfg1	Nfg	0.468446	0.844847	0.841129
Cfg1	Cfg	0.461082	0.731885	0.872572
Hfg1	Hfg	0.416785	0.685915	0.796448
Hfg2	Hfg	0.542727	0.697299	0.880321
Hfg3	Hfg	0.420768	0.721364	0.966955
Cfg2	Cfg	0.524301	0.913230	0.934627
Hfg4	Hfg	0.517817	0.998968	0.908409
Hfg5	Hfg	0.487627	0.904445	0.031467
Hfg6	Hfg	0.609629	0.889317	0.944315
Nfg2	Nfg	0.892758	0.158616	0.085151
Cfg3	Cfg	0.874566	0.271798	0.107420
Hfg7	Hfg	0.950144	0.316444	0.125025
Hfg8	Hfg	0.835012	0.307434	0.019916
Hfg9	Hfg	0.822136	0.282810	0.192237
Cfg4	Cfg	0.799120	0.091877	0.061830
Hfg10	Hfg	0.819753	0.005804	0.057394
Hfg11	Hfg	0.743315	0.101222	0.143612
Hfg12	Hfg	0.756405	0.116906	0.970962
Nfg3	Nfg	0.028886	0.653393	0.837923
Cfg5	Cfg	0.032463	0.767152	0.866207
Hfg13	Hfg	0.073580	0.813257	0.789868
Hfg14	Hfg	0.949667	0.798719	0.870822
Hfg15	Hfg	0.074069	0.781096	0.961314
Cfg6	Cfg	0.977398	0.584801	0.932002
Hfg16	Hfg	0.986707	0.498876	0.908493
Hfg17	Hfg	0.015477	0.596920	0.029523
Hfg18	Hfg	0.891366	0.605604	0.938777
Nfg4	Nfg	0.604338	0.341671	0.091031
Cfg7	Cfg	0.621982	0.227986	0.110940
Hfg19	Hfg	0.546345	0.183716	0.125606
Hfg20	Hfg	0.659492	0.193474	0.023510
Hfg21	Hfg	0.676012	0.215104	0.196759
Cfg8	Cfg	0.698119	0.407967	0.071634
Hfg22	Hfg	0.678150	0.494273	0.068829
Hfg23	Hfg	0.755479	0.396772	0.154542
Hfg24	Hfg	0.738816	0.384087	0.981179
Nfg5	Nfg	0.971262	0.839560	0.835444
Cfg9	Cfg	0.919987	0.809050	0.955541
Hfg25	Hfg	0.836078	0.837462	0.959393
Hfg26	Hfg	0.963852	0.845403	0.039564
Hfg27	Hfg	0.921070	0.720796	0.966345
Cfg10	Cfg	0.081461	0.805899	0.819223
Hfg28	Hfg	0.110823	0.824330	0.720635
Hfg29	Hfg	0.086970	0.717907	0.830900
Hfg30	Hfg	0.134160	0.843254	0.894788
Nfg6	Nfg	0.392758	0.158616	0.085151
Cfg11	Cfg	0.374566	0.271798	0.107420
Hfg31	Hfg	0.450144	0.316444	0.125025
Hfg32	Hfg	0.335012	0.307434	0.019916
Hfg33	Hfg	0.322136	0.282810	0.192237
Cfg12	Cfg	0.299120	0.091877	0.061830
Hfg34	Hfg	0.319753	0.005804	0.057394
Hfg35	Hfg	0.243315	0.101222	0.143612
Hfg36	Hfg	0.256405	0.116906	0.970962
Nfg7	Nfg	0.851692	0.662233	0.588364
Cfg13	Cfg	0.867281	0.776284	0.607623
Hfg37	Hfg	0.790873	0.819218	0.622256
Hfg38	Hfg	0.903998	0.811186	0.519908
Hfg39	Hfg	0.921210	0.790427	0.693234
Cfg14	Cfg	0.946635	0.597591	0.569068
Hfg40	Hfg	0.928249	0.510928	0.566773
Hfg41	Hfg	0.003921	0.610098	0.651767
Hfg42	Hfg	0.986729	0.621912	0.478375
Nfg8	Nfg	0.778493	0.342315	0.334985
Cfg15	Cfg	0.831463	0.308786	0.455613
Hfg43	Hfg	0.916272	0.334686	0.461790
Hfg44	Hfg	0.790489	0.345321	0.539397
Hfg45	Hfg	0.828026	0.220473	0.464728
Cfg16	Cfg	0.666977	0.312094	0.315778
Hfg46	Hfg	0.636028	0.332635	0.216901
Hfg47	Hfg	0.659142	0.224161	0.325676
Hfg48	Hfg	0.617019	0.349997	0.390934

loop_
_geom_bond_atom_site_label_1
_geom_bond_atom_site_label_2
_geom_bond_distance
Ni1	O2	0.16599
Ni1	O4	0.16318
Ni1	O6	0.18273
Ni1	O8	0.18366
Ni1	N1	0.17612
Ni1	N3	0.17584
Ni2	O3	0.16282
Ni2	O5	0.18195
Ni2	N4	0.17757
Ni2	O9	0.16410
Ni2	O15	0.18358
Ni2	N6	0.17676
O1	C23	0.11387
O1	Ni4	0.16410
O2	C24	0.11378
O3	C21	0.11586
O4	C22	0.11585
O5	C47	0.10254
O6	C24	0.10252
O7	Ni4	0.18358
O7	C45	0.10305
O8	C22	0.10301
N1	C11	0.12347
N1	C13	0.10899
N2	C12	0.12355
N2	C14	0.10891
N2	Ni4	0.17676
N3	C9	0.12117
N3	C15	0.10822
N4	C10	0.12114
N4	C16	0.10817
C1	H1	0.09850
C1	C3	0.11328
C1	C11	0.12097
C2	C4	0.11325
C2	C12	0.12119
C2	H15	0.09852
H2	C26	0.09852
C3	C5	0.12757
C3	C21	0.12596
C4	C6	0.12764
C4	C22	0.12621
C5	C13	0.12008
C5	H16	0.08819
C6	H4	0.08814
C6	C14	0.12032
H3	C29	0.08819
C7	H5	0.09658
C7	C9	0.12152
C7	C19	0.11239
C8	C10	0.12175
C8	C20	0.11233
C8	H19	0.09661
H6	C32	0.09661
C9	H7	0.08706
C10	Nfg4	0.11866
H8	C34	0.08704
C11	H9	0.08757
C12	Nfg2	0.11936
C13	Nfg1	0.13616
C14	H10	0.09914
C15	C17	0.12075
C15	Nfg3	0.13340
C16	H11	0.09742
C16	C18	0.12102
C17	C19	0.12512
C17	H23	0.08735
C18	H13	0.08736
C18	C20	0.12540
H12	C41	0.08735
C19	C23	0.12664
C20	C24	0.12739
C21	O15	0.10305
C23	O13	0.10254
Ni3	O10	0.16599
Ni3	O12	0.16318
Ni3	O14	0.18273
Ni3	O16	0.18366
Ni3	N5	0.17612
Ni3	N7	0.17584
Ni4	O11	0.16282
Ni4	O13	0.18195
Ni4	N8	0.17757
O9	C47	0.11388
O10	C48	0.11378
O11	C45	0.11586
O12	C46	0.11585
O14	C48	0.10252
O16	C46	0.10301
N5	C35	0.12347
N5	C37	0.10899
N6	C36	0.12355
N6	C38	0.10891
N7	C33	0.12117
N7	C39	0.10822
N8	C34	0.12114
N8	C40	0.10817
C25	H14	0.09850
C25	C27	0.11328
C25	C35	0.12097
C26	C28	0.11325
C26	C36	0.12119
C27	C29	0.12757
C27	C45	0.12596
C28	C30	0.12764
C28	C46	0.12621
C29	C37	0.12008
C30	H17	0.08814
C30	C38	0.12032
C31	H18	0.09658
C31	C33	0.12152
C31	C43	0.11239
C32	C34	0.12175
C32	C44	0.11233
C33	Nfg7	0.11862
C35	H20	0.08757
C36	Nfg6	0.11936
C37	Nfg5	0.13464
C38	H21	0.09914
C39	H22	0.09732
C39	C41	0.12075
C40	C42	0.12102
C40	Nfg8	0.13219
C41	C43	0.12512
C42	H24	0.08736
C42	C44	0.12540
C43	C47	0.12664
C44	C48	0.12739
Nfg1	Cfg1	0.11749
Nfg1	Cfg2	0.12860
Cfg1	Hfg1	0.09935
Cfg1	Hfg2	0.08901
Cfg1	Hfg3	0.10317
Hfg1	Hfg2	0.15174
Hfg1	Hfg3	0.17420
Hfg2	Hfg3	0.15152
Cfg2	Hfg4	0.08989
Cfg2	Hfg5	0.10392
Cfg2	Hfg6	0.08914
Hfg4	Hfg5	0.15808
Hfg4	Hfg6	0.14745
Hfg5	Hfg6	0.15069
Nfg2	Cfg3	0.11678
Nfg2	Cfg4	0.11733
Cfg3	Hfg7	0.08953
Cfg3	Hfg8	0.10243
Cfg3	Hfg9	0.10032
Hfg7	Hfg8	0.15616
Hfg7	Hfg9	0.14844
Hfg8	Hfg9	0.17455
Cfg4	Hfg10	0.08862
Cfg4	Hfg11	0.09945
Cfg4	Hfg12	0.10348
Hfg10	Hfg11	0.14960
Hfg10	Hfg12	0.15436
Hfg11	Hfg12	0.17385
Nfg3	Cfg5	0.11728
Nfg3	Cfg6	0.12731
Cfg5	Hfg13	0.09820
Cfg5	Hfg14	0.08873
Cfg5	Hfg15	0.10474
Hfg13	Hfg14	0.14873
Hfg13	Hfg15	0.17444
Hfg14	Hfg15	0.15484
Cfg6	Hfg16	0.08957
Cfg6	Hfg17	0.10539
Cfg6	Hfg18	0.08877
Hfg16	Hfg17	0.15839
Hfg16	Hfg18	0.14628
Hfg17	Hfg18	0.15399
Nfg4	Cfg7	0.11676
Nfg4	Cfg8	0.11647
Cfg7	Hfg19	0.08886
Cfg7	Hfg20	0.10120
Cfg7	Hfg21	0.10223
Hfg19	Hfg20	0.15271
Hfg19	Hfg21	0.15120
Hfg20	Hfg21	0.17537
Cfg8	Hfg22	0.08863
Cfg8	Hfg23	0.10144
Cfg8	Hfg24	0.10202
Hfg22	Hfg23	0.15111
Hfg22	Hfg24	0.15331
Hfg23	Hfg24	0.17462
Nfg5	Cfg9	0.13410
Nfg5	Cfg10	0.11636
Cfg9	Hfg25	0.08867
Cfg9	Hfg26	0.10152
Cfg9	Hfg27	0.08892
Hfg25	Hfg26	0.15105
Hfg25	Hfg27	0.14451
Hfg26	Hfg27	0.15073
Cfg10	Hfg28	0.10451
Cfg10	Hfg29	0.08893
Cfg10	Hfg30	0.09941
Hfg28	Hfg29	0.15509
Hfg28	Hfg30	0.17673
Hfg29	Hfg30	0.14839
Nfg6	Cfg11	0.11678
Nfg6	Cfg12	0.11733
Cfg11	Hfg31	0.08953
Cfg11	Hfg32	0.10243
Cfg11	Hfg33	0.10032
Hfg31	Hfg32	0.15616
Hfg31	Hfg33	0.14844
Hfg32	Hfg33	0.17455
Cfg12	Hfg34	0.08862
Cfg12	Hfg35	0.09945
Cfg12	Hfg36	0.10348
Hfg34	Hfg35	0.14960
Hfg34	Hfg36	0.15436
Hfg35	Hfg36	0.17385
Nfg7	Cfg13	0.11671
Nfg7	Cfg14	0.11647
Cfg13	Hfg37	0.08886
Cfg13	Hfg38	0.10129
Cfg13	Hfg39	0.10216
Hfg37	Hfg38	0.15276
Hfg37	Hfg39	0.15118
Hfg38	Hfg39	0.17541
Cfg14	Hfg40	0.08862
Cfg14	Hfg41	0.10138
Cfg14	Hfg42	0.10210
Hfg40	Hfg41	0.15095
Hfg40	Hfg42	0.15347
Hfg41	Hfg42	0.17464
Nfg8	Cfg15	0.13595
Nfg8	Cfg16	0.11712
Cfg15	Hfg43	0.08889
Cfg15	Hfg44	0.10017
Cfg15	Hfg45	0.08885
Hfg43	Hfg44	0.14818
Hfg43	Hfg45	0.14436
Hfg44	Hfg45	0.15024
Cfg16	Hfg46	0.10562
Cfg16	Hfg47	0.08883
Cfg16	Hfg48	0.09788
Hfg46	Hfg47	0.15535
Hfg46	Hfg48	0.17593
Hfg47	Hfg48	0.14788
