data_NiPyC2_relax_sc211_NiPyC2_relax_sc211_aligned_S-CH3_NiPyC2_relax_sc211_aligned_S-CH3_NiPyC2_relax_sc211_aligned_S-CH3_NiPyC2_relax_sc211_aligned_S-CH3_NiPyC2_relax_sc211_aligned_S-CH3_NiPyC2_relax_sc211_aligned_S-CH3_NiPyC2_relax_sc211_aligned_S-CH3_NiPyC2_relax_sc211_aligned_S-CH3_PM
_symmetry_space_group_name_H-M	'P1'
_cell_length_a	12.505600
_cell_length_b	12.523400
_cell_length_c	10.276800
_cell_angle_alpha	90.000000
_cell_angle_beta	91.269000
_cell_angle_gamma	90.000000
_symmetry_Int_Tables_number 1

loop_
_symmetry_equiv_pos_as_xyz
'x,y,z'

loop_
_atom_site_label
_atom_site_type_symbol
_atom_site_fract_x
_atom_site_fract_y
_atom_site_fract_z
Ni1	Ni	0.247002	0.751486	0.836326
Ni2	Ni	0.499972	0.247999	0.339178
O1	O	0.122778	0.347689	0.382873
O2	O	0.371208	0.650977	0.881292
O3	O	0.377630	0.147507	0.377178
O4	O	0.125098	0.852352	0.876261
O5	O	0.473069	0.356160	0.482994
O6	O	0.221137	0.641415	0.979877
O7	O	0.028840	0.135158	0.481078
O8	O	0.276686	0.862758	0.979399
N1	N	0.308437	0.851253	0.704828
N2	N	0.060729	0.148857	0.206052
N3	N	0.186542	0.650310	0.705838
N4	N	0.438810	0.350928	0.208041
C1	C	0.288212	0.970050	0.521984
C2	C	0.038379	0.031106	0.022308
H1	H	0.237124	0.999575	0.443113
H2	H	0.486538	0.002692	0.943499
C3	C	0.390634	0.011770	0.546492
C4	C	0.140244	0.987744	0.046146
C5	C	0.451915	0.970202	0.650371
C6	C	0.202520	0.028353	0.149893
H3	H	0.032063	0.998805	0.673520
H4	H	0.282340	0.998665	0.172602
C7	C	0.208181	0.529704	0.526384
C8	C	0.458545	0.471409	0.027904
H5	H	0.258700	0.500895	0.449282
H6	H	0.008641	0.500397	0.950548
C9	C	0.245137	0.613331	0.606435
C10	C	0.496819	0.388677	0.108617
H7	H	0.322641	0.650506	0.592635
C11	C	0.249476	0.889206	0.603203
C12	C	0.001069	0.112232	0.104247
H8	H	0.170154	0.855123	0.588560
H9	H	0.422322	0.147732	0.089886
C13	C	0.407977	0.889383	0.727552
C14	C	0.159935	0.109547	0.227812
C15	C	0.088862	0.608983	0.727352
C16	C	0.340890	0.391633	0.229394
H10	H	0.296378	0.357526	0.309051
C17	C	0.046925	0.525079	0.651312
C18	C	0.297658	0.474711	0.152754
H11	H	0.468672	0.493231	0.673502
H12	H	0.218952	0.505201	0.175264
C19	C	0.108164	0.484270	0.550116
C20	C	0.357832	0.515656	0.050638
C21	C	0.433310	0.099319	0.466621
C22	C	0.181517	0.899720	0.965672
C23	C	0.067378	0.394474	0.470676
C24	C	0.316043	0.604172	0.969107
Ni3	Ni	0.747002	0.751486	0.836326
Ni4	Ni	0.999972	0.247999	0.339178
O9	O	0.622779	0.347689	0.382873
O10	O	0.871208	0.650977	0.881292
O11	O	0.877630	0.147507	0.377178
O12	O	0.625098	0.852352	0.876261
O13	O	0.973069	0.356160	0.482994
O14	O	0.721137	0.641415	0.979877
O15	O	0.528840	0.135158	0.481078
O16	O	0.776686	0.862758	0.979399
N5	N	0.808437	0.851253	0.704828
N6	N	0.560729	0.148857	0.206052
N7	N	0.686543	0.650310	0.705838
N8	N	0.938810	0.350928	0.208041
C25	C	0.788212	0.970050	0.521984
C26	C	0.538379	0.031106	0.022308
H13	H	0.737124	0.999575	0.443113
H14	H	0.986538	0.002692	0.943499
C27	C	0.890634	0.011770	0.546492
C28	C	0.640244	0.987744	0.046146
C29	C	0.951915	0.970202	0.650371
C30	C	0.702520	0.028353	0.149893
H15	H	0.532062	0.998805	0.673520
H16	H	0.782340	0.998665	0.172602
C31	C	0.708182	0.529704	0.526384
C32	C	0.958546	0.471409	0.027904
H17	H	0.758700	0.500895	0.449282
H18	H	0.508641	0.500397	0.950548
C33	C	0.745137	0.613331	0.606435
C34	C	0.996819	0.388677	0.108617
C35	C	0.749476	0.889206	0.603203
C36	C	0.501069	0.112232	0.104247
H19	H	0.670154	0.855123	0.588560
H20	H	0.922322	0.147732	0.089886
C37	C	0.907977	0.889383	0.727552
C38	C	0.659934	0.109547	0.227812
C39	C	0.588862	0.608983	0.727352
C40	C	0.840890	0.391633	0.229394
H21	H	0.543729	0.642944	0.806608
H22	H	0.796378	0.357526	0.309051
C41	C	0.546925	0.525079	0.651312
C42	C	0.797658	0.474711	0.152754
H23	H	0.968672	0.493231	0.673502
H24	H	0.718952	0.505201	0.175264
C43	C	0.608164	0.484270	0.550116
C44	C	0.857832	0.515656	0.050638
C45	C	0.933310	0.099319	0.466621
C46	C	0.681517	0.899720	0.965672
C47	C	0.567377	0.394474	0.470676
C48	C	0.816043	0.604172	0.969107
S1	S	0.467074	0.844563	0.819608
C49	C	0.506798	0.860227	0.958217
H25	H	0.569930	0.805094	0.995070
H26	H	0.433430	0.845384	0.014304
H27	H	0.536533	0.943084	0.971780
S2	S	0.220073	0.153444	0.319520
C50	C	0.260396	0.136996	0.457751
H28	H	0.324362	0.191314	0.494278
H29	H	0.187538	0.152548	0.514523
H30	H	0.289241	0.053772	0.470755
S3	S	0.035422	0.644278	0.826975
C51	C	0.944686	0.717659	0.862415
H31	H	0.915777	0.713266	0.963532
H32	H	0.980637	0.797746	0.848286
H33	H	0.875056	0.704284	0.795538
S4	S	0.587730	0.341894	0.083088
C52	C	0.707378	0.354372	0.100380
H34	H	0.758679	0.298572	0.045820
H35	H	0.719532	0.337982	0.205817
H36	H	0.731474	0.436959	0.074983
S5	S	0.967074	0.844563	0.819608
C53	C	0.006798	0.860227	0.958217
H37	H	0.069930	0.805094	0.995070
H38	H	0.933430	0.845384	0.014304
H39	H	0.036533	0.943084	0.971780
S6	S	0.715001	0.144050	0.329666
C54	C	0.804664	0.218997	0.369187
H40	H	0.836155	0.213159	0.470685
H41	H	0.766270	0.298386	0.357010
H42	H	0.873003	0.208928	0.303177
S7	S	0.841057	0.652655	0.590671
C55	C	0.902761	0.730245	0.508419
H43	H	0.991224	0.728980	0.518779
H44	H	0.874158	0.808548	0.544386
H45	H	0.881756	0.718332	0.403917
S8	S	0.093525	0.351061	0.093260
C56	C	0.156791	0.274341	0.011586
H46	H	0.245202	0.277249	0.022164
H47	H	0.129563	0.195648	0.047896
H48	H	0.135758	0.285531	0.906972

loop_
_geom_bond_atom_site_label_1
_geom_bond_atom_site_label_2
_geom_bond_distance
Ni1	O2	0.16599
Ni1	O4	0.16318
Ni1	O6	0.18273
Ni1	O8	0.18366
Ni1	N1	0.17612
Ni1	N3	0.17584
Ni2	O3	0.16282
Ni2	O5	0.18195
Ni2	N4	0.17757
Ni2	O9	0.16410
Ni2	O15	0.18358
Ni2	N6	0.17676
O1	C23	0.11387
O1	Ni4	0.16410
O2	C24	0.11378
O3	C21	0.11586
O4	C22	0.11585
O5	C47	0.10254
O6	C24	0.10252
O7	Ni4	0.18358
O7	C45	0.10305
O8	C22	0.10301
N1	C11	0.12347
N1	C13	0.10899
N2	C12	0.12355
N2	C14	0.10891
N2	Ni4	0.17676
N3	C9	0.12117
N3	C15	0.10822
N4	C10	0.12114
N4	C16	0.10817
C1	H1	0.09850
C1	C3	0.11328
C1	C11	0.12097
C2	C4	0.11325
C2	C12	0.12119
C2	H14	0.09852
H2	C26	0.09852
C3	C5	0.12757
C3	C21	0.12596
C4	C6	0.12764
C4	C22	0.12621
C5	C13	0.12008
C5	H15	0.08819
C6	H4	0.08814
C6	C14	0.12032
H3	C29	0.08819
C7	H5	0.09658
C7	C9	0.12152
C7	C19	0.11239
C8	C10	0.12175
C8	C20	0.11233
C8	H18	0.09661
H6	C32	0.09661
C9	H7	0.08706
C10	S4	0.10538
C11	H8	0.08757
C12	H20	0.08756
H9	C36	0.08756
C13	S1	0.11822
C14	S2	0.11813
C15	C17	0.12075
C15	S3	0.11843
C16	H10	0.09742
C16	C18	0.12102
C17	C19	0.12512
C17	H23	0.08735
C18	H12	0.08736
C18	C20	0.12540
H11	C41	0.08735
C19	C23	0.12664
C20	C24	0.12739
C21	O15	0.10305
C23	O13	0.10254
Ni3	O10	0.16599
Ni3	O12	0.16318
Ni3	O14	0.18273
Ni3	O16	0.18366
Ni3	N5	0.17612
Ni3	N7	0.17584
Ni4	O11	0.16282
Ni4	O13	0.18195
Ni4	N8	0.17757
O9	C47	0.11388
O10	C48	0.11378
O11	C45	0.11586
O12	C46	0.11585
O14	C48	0.10252
O16	C46	0.10301
N5	C35	0.12347
N5	C37	0.10899
N6	C36	0.12355
N6	C38	0.10891
N7	C33	0.12117
N7	C39	0.10822
N8	C34	0.12114
N8	C40	0.10817
C25	H13	0.09850
C25	C27	0.11328
C25	C35	0.12097
C26	C28	0.11325
C26	C36	0.12119
C27	C29	0.12757
C27	C45	0.12596
C28	C30	0.12764
C28	C46	0.12621
C29	C37	0.12008
C30	H16	0.08814
C30	C38	0.12032
C31	H17	0.09658
C31	C33	0.12152
C31	C43	0.11239
C32	C34	0.12175
C32	C44	0.11233
C33	S7	0.10486
C34	S8	0.10489
C35	H19	0.08757
C37	S5	0.11822
C38	S6	0.12082
C39	H21	0.09732
C39	C41	0.12075
C40	H22	0.09742
C40	C42	0.12102
C41	C43	0.12512
C42	H24	0.08736
C42	C44	0.12540
C43	C47	0.12664
C44	C48	0.12739
S1	C49	0.14504
C49	H25	0.09156
C49	H26	0.09354
C49	H27	0.08907
S2	C50	0.14493
C50	H28	0.09152
C50	H29	0.09367
C50	H30	0.08904
S3	C51	0.12196
C51	H31	0.10526
C51	H32	0.08892
C51	H33	0.09747
S4	C52	0.12153
C52	H34	0.09339
C52	H35	0.10739
C52	H36	0.08970
S5	C53	0.14504
C53	H37	0.09156
C53	H38	0.09354
C53	H39	0.08907
S6	C54	0.12336
C54	H40	0.10643
C54	H41	0.08902
C54	H42	0.09555
S7	C55	0.12881
C55	H43	0.08908
C55	H44	0.09079
C55	H45	0.10726
S8	C56	0.12868
C56	H46	0.08909
C56	H47	0.09084
C56	H48	0.10729
