data_NiPyC2_relax_sc211_NiPyC2_relax_sc211_aligned_C-3CH3_NiPyC2_relax_sc211_aligned_C-3CH3_NiPyC2_relax_sc211_aligned_C-3CH3_NiPyC2_relax_sc211_aligned_C-3CH3_NiPyC2_relax_sc211_aligned_C-3CH3_NiPyC2_relax_sc211_aligned_C-3CH3_NiPyC2_relax_sc211_aligned_C-3CH3_NiPyC2_relax_sc211_aligned_C-3CH3_PM
_symmetry_space_group_name_H-M	'P1'
_cell_length_a	12.505600
_cell_length_b	12.523400
_cell_length_c	10.276800
_cell_angle_alpha	90.000000
_cell_angle_beta	91.269000
_cell_angle_gamma	90.000000
_symmetry_Int_Tables_number 1

loop_
_symmetry_equiv_pos_as_xyz
'x,y,z'

loop_
_atom_site_label
_atom_site_type_symbol
_atom_site_fract_x
_atom_site_fract_y
_atom_site_fract_z
Ni1	Ni	0.247002	0.751486	0.836326
Ni2	Ni	0.499972	0.247999	0.339178
O1	O	0.122778	0.347689	0.382873
O2	O	0.371208	0.650977	0.881292
O3	O	0.377630	0.147507	0.377178
O4	O	0.125098	0.852352	0.876261
O5	O	0.473069	0.356160	0.482994
O6	O	0.221137	0.641415	0.979877
O7	O	0.028840	0.135158	0.481078
O8	O	0.276686	0.862758	0.979399
N1	N	0.308437	0.851253	0.704828
N2	N	0.060729	0.148857	0.206052
N3	N	0.186542	0.650310	0.705838
N4	N	0.438810	0.350928	0.208041
C1	C	0.288212	0.970050	0.521984
C2	C	0.038379	0.031106	0.022308
H1	H	0.237124	0.999575	0.443113
H2	H	0.486538	0.002692	0.943499
C3	C	0.390634	0.011770	0.546492
C4	C	0.140244	0.987744	0.046146
C5	C	0.451915	0.970202	0.650371
C6	C	0.202520	0.028353	0.149893
H3	H	0.032063	0.998805	0.673520
H4	H	0.282340	0.998665	0.172602
C7	C	0.208181	0.529704	0.526384
C8	C	0.458545	0.471409	0.027904
H5	H	0.258700	0.500895	0.449282
H6	H	0.008641	0.500397	0.950548
C9	C	0.245137	0.613331	0.606435
C10	C	0.496819	0.388677	0.108617
H7	H	0.322641	0.650506	0.592635
C11	C	0.249476	0.889206	0.603203
C12	C	0.001069	0.112232	0.104247
H8	H	0.170154	0.855123	0.588560
C13	C	0.407977	0.889383	0.727552
C14	C	0.159935	0.109547	0.227812
C15	C	0.088862	0.608983	0.727352
C16	C	0.340890	0.391633	0.229394
C17	C	0.046925	0.525079	0.651312
C18	C	0.297658	0.474711	0.152754
H9	H	0.468672	0.493231	0.673502
H10	H	0.218952	0.505201	0.175264
C19	C	0.108164	0.484270	0.550116
C20	C	0.357832	0.515656	0.050638
C21	C	0.433310	0.099319	0.466621
C22	C	0.181517	0.899720	0.965672
C23	C	0.067378	0.394474	0.470676
C24	C	0.316043	0.604172	0.969107
Ni3	Ni	0.747002	0.751486	0.836326
Ni4	Ni	0.999972	0.247999	0.339178
O9	O	0.622779	0.347689	0.382873
O10	O	0.871208	0.650977	0.881292
O11	O	0.877630	0.147507	0.377178
O12	O	0.625098	0.852352	0.876261
O13	O	0.973069	0.356160	0.482994
O14	O	0.721137	0.641415	0.979877
O15	O	0.528840	0.135158	0.481078
O16	O	0.776686	0.862758	0.979399
N5	N	0.808437	0.851253	0.704828
N6	N	0.560729	0.148857	0.206052
N7	N	0.686543	0.650310	0.705838
N8	N	0.938810	0.350928	0.208041
C25	C	0.788212	0.970050	0.521984
C26	C	0.538379	0.031106	0.022308
H11	H	0.737124	0.999575	0.443113
H12	H	0.986538	0.002692	0.943499
C27	C	0.890634	0.011770	0.546492
C28	C	0.640244	0.987744	0.046146
C29	C	0.951915	0.970202	0.650371
C30	C	0.702520	0.028353	0.149893
H13	H	0.532062	0.998805	0.673520
H14	H	0.782340	0.998665	0.172602
C31	C	0.708182	0.529704	0.526384
C32	C	0.958546	0.471409	0.027904
H15	H	0.758700	0.500895	0.449282
H16	H	0.508641	0.500397	0.950548
C33	C	0.745137	0.613331	0.606435
C34	C	0.996819	0.388677	0.108617
H17	H	0.822641	0.650506	0.592635
H18	H	0.574968	0.352851	0.095028
C35	C	0.749476	0.889206	0.603203
C36	C	0.501069	0.112232	0.104247
H19	H	0.670154	0.855123	0.588560
H20	H	0.922322	0.147732	0.089886
C37	C	0.907977	0.889383	0.727552
C38	C	0.659934	0.109547	0.227812
H21	H	0.706240	0.143103	0.308797
C39	C	0.588862	0.608983	0.727352
C40	C	0.840890	0.391633	0.229394
H22	H	0.796378	0.357526	0.309051
C41	C	0.546925	0.525079	0.651312
C42	C	0.797658	0.474711	0.152754
H23	H	0.968672	0.493231	0.673502
H24	H	0.718952	0.505201	0.175264
C43	C	0.608164	0.484270	0.550116
C44	C	0.857832	0.515656	0.050638
C45	C	0.933310	0.099319	0.466621
C46	C	0.681517	0.899720	0.965672
C47	C	0.567377	0.394474	0.470676
C48	C	0.816043	0.604172	0.969107
C49	C	0.473817	0.836100	0.849580
C50	C	0.409240	0.748072	0.921109
H25	H	0.388244	0.680548	0.855066
H26	H	0.456782	0.713632	0.003725
H27	H	0.334828	0.780857	0.962910
C51	C	0.497981	0.920638	0.956616
H28	H	0.421586	0.952675	0.993842
H29	H	0.542903	0.884079	0.039875
H30	H	0.543278	0.991078	0.927477
C52	C	0.574593	0.776769	0.801935
H31	H	0.550070	0.711393	0.734429
H32	H	0.632231	0.824033	0.747878
H33	H	0.619410	0.740408	0.885406
C53	C	0.227083	0.161758	0.349470
C54	C	0.163950	0.250351	0.421885
H34	H	0.143366	0.318267	0.356263
H35	H	0.212351	0.284048	0.504236
H36	H	0.089415	0.218323	0.464200
C55	C	0.250871	0.076695	0.456000
H37	H	0.174335	0.045449	0.493759
H38	H	0.296681	0.112539	0.539025
H39	H	0.295174	0.005810	0.426211
C56	C	0.328250	0.220041	0.301186
H40	H	0.304107	0.285853	0.234124
H41	H	0.385018	0.172247	0.246457
H42	H	0.373955	0.255689	0.384423
C57	C	0.023333	0.662093	0.845975
C58	C	0.085786	0.753942	0.916560
H43	H	0.102966	0.820885	0.849061
H44	H	0.038443	0.788169	0.996923
H45	H	0.162185	0.724885	0.961252
C59	C	0.004390	0.578850	0.954888
H46	H	0.082660	0.550525	0.995034
H47	H	0.959595	0.615308	0.035899
H48	H	0.961302	0.506159	0.926669
C60	C	0.919453	0.716539	0.793972
H49	H	0.940214	0.781443	0.725165
H50	H	0.862683	0.666029	0.739831
H51	H	0.874774	0.752808	0.875204
C61	C	0.276142	0.338749	0.349002
C62	C	0.339671	0.247961	0.420245
H52	H	0.415935	0.278017	0.464259
H53	H	0.292914	0.213866	0.501205
H54	H	0.357250	0.180712	0.353361
C63	C	0.172612	0.283006	0.298081
H55	H	0.193748	0.217818	0.229850
H56	H	0.128543	0.246899	0.379918
H57	H	0.115203	0.332624	0.243688
C64	C	0.256784	0.422570	0.457137
H58	H	0.334911	0.451878	0.496601
H59	H	0.212934	0.494670	0.428366
H60	H	0.212598	0.386272	0.538756
C65	C	0.973817	0.836100	0.849580
C66	C	0.909240	0.748072	0.921109
H61	H	0.888244	0.680548	0.855066
H62	H	0.956782	0.713632	0.003725
H63	H	0.834828	0.780857	0.962910
C67	C	0.997981	0.920638	0.956616
H64	H	0.921586	0.952675	0.993842
H65	H	0.042903	0.884079	0.039875
H66	H	0.043278	0.991078	0.927477
C68	C	0.074593	0.776769	0.801935
H67	H	0.050070	0.711393	0.734429
H68	H	0.132231	0.824033	0.747878
H69	H	0.119410	0.740408	0.885406
C69	C	0.384408	0.167512	0.082788
C70	C	0.360356	0.255494	0.185565
H70	H	0.419039	0.322074	0.181598
H71	H	0.279967	0.291349	0.167647
H72	H	0.360351	0.222256	0.285913
C71	C	0.293876	0.084381	0.100390
H73	H	0.298094	0.051821	0.201025
H74	H	0.214153	0.122331	0.085679
H75	H	0.295091	0.014193	0.037107
C72	C	0.378053	0.227546	0.950773
H76	H	0.439265	0.291922	0.950106
H77	H	0.392827	0.180420	0.863389
H78	H	0.298214	0.265300	0.936267
C73	C	0.523334	0.662094	0.845975
C74	C	0.585787	0.753943	0.916559
H79	H	0.602967	0.820886	0.849060
H80	H	0.538443	0.788170	0.996922
H81	H	0.662186	0.724885	0.961252
C75	C	0.504390	0.578851	0.954888
H82	H	0.582660	0.550526	0.995034
H83	H	0.459595	0.615309	0.035899
H84	H	0.461301	0.506160	0.926669
C76	C	0.419454	0.716540	0.793971
H85	H	0.440215	0.781444	0.725164
H86	H	0.362683	0.666030	0.739830
H87	H	0.374775	0.752809	0.875203
C77	C	0.112564	0.332743	0.088650
C78	C	0.137891	0.242857	0.189835
H88	H	0.078532	0.176871	0.182796
H89	H	0.217625	0.206608	0.172979
H90	H	0.140183	0.274413	0.291010
C79	C	0.204196	0.414770	0.110508
H91	H	0.202264	0.445680	0.211851
H92	H	0.283310	0.376379	0.096791
H93	H	0.202341	0.486008	0.048932
C80	C	0.115769	0.274871	0.955297
H94	H	0.053965	0.211056	0.951551
H95	H	0.099669	0.323573	0.868719
H96	H	0.195004	0.236672	0.941793

loop_
_geom_bond_atom_site_label_1
_geom_bond_atom_site_label_2
_geom_bond_distance
Ni1	O2	0.16599
Ni1	O4	0.16318
Ni1	O6	0.18273
Ni1	O8	0.18366
Ni1	N1	0.17612
Ni1	N3	0.17584
Ni2	O3	0.16282
Ni2	O5	0.18195
Ni2	N4	0.17757
Ni2	O9	0.16410
Ni2	O15	0.18358
Ni2	N6	0.17676
O1	C23	0.11387
O1	Ni4	0.16410
O2	C24	0.11378
O3	C21	0.11586
O4	C22	0.11585
O5	C47	0.10254
O6	C24	0.10252
O7	Ni4	0.18358
O7	C45	0.10305
O8	C22	0.10301
N1	C11	0.12347
N1	C13	0.10899
N2	C12	0.12355
N2	C14	0.10891
N2	Ni4	0.17676
N3	C9	0.12117
N3	C15	0.10822
N4	C10	0.12114
N4	C16	0.10817
C1	H1	0.09850
C1	C3	0.11328
C1	C11	0.12097
C2	C4	0.11325
C2	C12	0.12119
C2	H12	0.09852
H2	C26	0.09852
C3	C5	0.12757
C3	C21	0.12596
C4	C6	0.12764
C4	C22	0.12621
C5	C13	0.12008
C5	H13	0.08819
C6	H4	0.08814
C6	C14	0.12032
H3	C29	0.08819
C7	H5	0.09658
C7	C9	0.12152
C7	C19	0.11239
C8	C10	0.12175
C8	C20	0.11233
C8	H16	0.09661
H6	C32	0.09661
C9	H7	0.08706
C10	H18	0.08704
C11	H8	0.08757
C12	H20	0.08756
C13	C49	0.14854
C14	C53	0.14844
C15	C17	0.12075
C15	C57	0.14555
C16	C18	0.12102
C16	C61	0.14593
C17	C19	0.12512
C17	H23	0.08735
C18	H10	0.08736
C18	C20	0.12540
H9	C41	0.08735
C19	C23	0.12664
C20	C24	0.12739
C21	O15	0.10305
C23	O13	0.10254
Ni3	O10	0.16599
Ni3	O12	0.16318
Ni3	O14	0.18273
Ni3	O16	0.18366
Ni3	N5	0.17612
Ni3	N7	0.17584
Ni4	O11	0.16282
Ni4	O13	0.18195
Ni4	N8	0.17757
O9	C47	0.11388
O10	C48	0.11378
O11	C45	0.11586
O12	C46	0.11585
O14	C48	0.10252
O16	C46	0.10301
N5	C35	0.12347
N5	C37	0.10899
N6	C36	0.12355
N6	C38	0.10891
N7	C33	0.12117
N7	C39	0.10822
N8	C34	0.12114
N8	C40	0.10817
C25	H11	0.09850
C25	C27	0.11328
C25	C35	0.12097
C26	C28	0.11325
C26	C36	0.12119
C27	C29	0.12757
C27	C45	0.12596
C28	C30	0.12764
C28	C46	0.12621
C29	C37	0.12008
C30	H14	0.08814
C30	C38	0.12032
C31	H15	0.09658
C31	C33	0.12152
C31	C43	0.11239
C32	C34	0.12175
C32	C44	0.11233
C33	H17	0.08706
C35	H19	0.08757
C36	C69	0.13087
C37	C65	0.14854
C38	H21	0.09914
C39	C41	0.12075
C39	C73	0.14555
C40	H22	0.09742
C40	C42	0.12102
C41	C43	0.12512
C42	H24	0.08736
C42	C44	0.12540
C43	C47	0.12664
C44	C48	0.12739
C49	C50	0.13052
C49	C51	0.13852
C49	C52	0.12628
C50	H25	0.09676
C50	H26	0.10135
C50	H27	0.09143
C51	H28	0.09082
C51	H29	0.10142
C51	H30	0.08867
C52	H31	0.09712
C52	H32	0.09208
C52	H33	0.10148
C53	C54	0.13068
C53	C55	0.13838
C53	C56	0.12635
C54	H34	0.09666
C54	H35	0.10129
C54	H36	0.09150
C55	H37	0.09088
C55	H38	0.10137
C55	H39	0.08874
C56	H40	0.09701
C56	H41	0.09221
C56	H42	0.10143
C57	C58	0.13160
C57	C59	0.13838
C57	C60	0.12830
C58	H43	0.09661
C58	H44	0.09935
C58	H45	0.09316
C59	H46	0.09241
C59	H47	0.09949
C59	H48	0.08909
C60	H49	0.09684
C60	H50	0.09330
C60	H51	0.09955
C61	C62	0.13173
C61	C63	0.12814
C61	C64	0.13818
C62	H52	0.09304
C62	H53	0.09951
C62	H54	0.09646
C63	H55	0.09670
C63	H56	0.09971
C63	H57	0.09336
C64	H58	0.09230
C64	H59	0.08916
C64	H60	0.09966
C65	C66	0.13052
C65	C67	0.13852
C65	C68	0.12628
C66	H61	0.09676
C66	H62	0.10135
C66	H63	0.09143
C67	H64	0.09082
C67	H65	0.10142
C67	H66	0.08867
C68	H67	0.09712
C68	H68	0.09208
C68	H69	0.10148
C69	C70	0.13741
C69	C71	0.12416
C69	C72	0.14516
C70	H70	0.08884
C70	H71	0.08983
C70	H72	0.10571
C71	H73	0.10586
C71	H74	0.08951
C71	H75	0.09451
C72	H76	0.08883
C72	H77	0.10037
C72	H78	0.08950
C73	C74	0.13160
C73	C75	0.13838
C74	H79	0.09661
C74	H80	0.09935
C74	H81	0.09316
C75	H82	0.09241
C75	H83	0.09949
C75	H84	0.08909
