data_NiPyC2_relax_sc211_NiPyC2_relax_sc211_aligned_O-CH2-CH2-CH3_NiPyC2_relax_sc211_aligned_O-CH2-CH2-CH3_NiPyC2_relax_sc211_aligned_O-CH2-CH2-CH3_NiPyC2_relax_sc211_aligned_O-CH2-CH2-CH3_NiPyC2_relax_sc211_aligned_O-CH2-CH2-CH3_NiPyC2_relax_sc211_aligned_O-CH2-CH2-CH3_NiPyC2_relax_sc211_aligned_O-CH2-CH2-CH3_NiPyC2_relax_sc211_aligned_O-CH2-CH2-CH3_PM
_symmetry_space_group_name_H-M	'P1'
_cell_length_a	12.505600
_cell_length_b	12.523400
_cell_length_c	10.276800
_cell_angle_alpha	90.000000
_cell_angle_beta	91.269000
_cell_angle_gamma	90.000000
_symmetry_Int_Tables_number 1

loop_
_symmetry_equiv_pos_as_xyz
'x,y,z'

loop_
_atom_site_label
_atom_site_type_symbol
_atom_site_fract_x
_atom_site_fract_y
_atom_site_fract_z
Ni1	Ni	0.247002	0.751486	0.836326
Ni2	Ni	0.499972	0.247999	0.339178
O1	O	0.122778	0.347689	0.382873
O2	O	0.371208	0.650977	0.881292
O3	O	0.377630	0.147507	0.377178
O4	O	0.125098	0.852352	0.876261
O5	O	0.473069	0.356160	0.482994
O6	O	0.221137	0.641415	0.979877
O7	O	0.028840	0.135158	0.481078
O8	O	0.276686	0.862758	0.979399
N1	N	0.308437	0.851253	0.704828
N2	N	0.060729	0.148857	0.206052
N3	N	0.186542	0.650310	0.705838
N4	N	0.438810	0.350928	0.208041
C1	C	0.288212	0.970050	0.521984
C2	C	0.038379	0.031106	0.022308
H1	H	0.237124	0.999575	0.443113
H2	H	0.486538	0.002692	0.943499
C3	C	0.390634	0.011770	0.546492
C4	C	0.140244	0.987744	0.046146
C5	C	0.451915	0.970202	0.650371
C6	C	0.202520	0.028353	0.149893
H3	H	0.032063	0.998805	0.673520
H4	H	0.282340	0.998665	0.172602
C7	C	0.208181	0.529704	0.526384
C8	C	0.458545	0.471409	0.027904
H5	H	0.258700	0.500895	0.449282
H6	H	0.008641	0.500397	0.950548
C9	C	0.245137	0.613331	0.606435
C10	C	0.496819	0.388677	0.108617
H7	H	0.074968	0.352851	0.095028
C11	C	0.249476	0.889206	0.603203
C12	C	0.001069	0.112232	0.104247
H8	H	0.170154	0.855123	0.588560
H9	H	0.422322	0.147732	0.089886
C13	C	0.407977	0.889383	0.727552
C14	C	0.159935	0.109547	0.227812
H10	H	0.206239	0.143103	0.308797
C15	C	0.088862	0.608983	0.727352
C16	C	0.340890	0.391633	0.229394
H11	H	0.043729	0.642944	0.806608
C17	C	0.046925	0.525079	0.651312
C18	C	0.297658	0.474711	0.152754
H12	H	0.468672	0.493231	0.673502
H13	H	0.218952	0.505201	0.175264
C19	C	0.108164	0.484270	0.550116
C20	C	0.357832	0.515656	0.050638
C21	C	0.433310	0.099319	0.466621
C22	C	0.181517	0.899720	0.965672
C23	C	0.067378	0.394474	0.470676
C24	C	0.316043	0.604172	0.969107
Ni3	Ni	0.747002	0.751486	0.836326
Ni4	Ni	0.999972	0.247999	0.339178
O9	O	0.622779	0.347689	0.382873
O10	O	0.871208	0.650977	0.881292
O11	O	0.877630	0.147507	0.377178
O12	O	0.625098	0.852352	0.876261
O13	O	0.973069	0.356160	0.482994
O14	O	0.721137	0.641415	0.979877
O15	O	0.528840	0.135158	0.481078
O16	O	0.776686	0.862758	0.979399
N5	N	0.808437	0.851253	0.704828
N6	N	0.560729	0.148857	0.206052
N7	N	0.686543	0.650310	0.705838
N8	N	0.938810	0.350928	0.208041
C25	C	0.788212	0.970050	0.521984
C26	C	0.538379	0.031106	0.022308
H14	H	0.737124	0.999575	0.443113
H15	H	0.986538	0.002692	0.943499
C27	C	0.890634	0.011770	0.546492
C28	C	0.640244	0.987744	0.046146
C29	C	0.951915	0.970202	0.650371
C30	C	0.702520	0.028353	0.149893
H16	H	0.532062	0.998805	0.673520
H17	H	0.782340	0.998665	0.172602
C31	C	0.708182	0.529704	0.526384
C32	C	0.958546	0.471409	0.027904
H18	H	0.758700	0.500895	0.449282
H19	H	0.508641	0.500397	0.950548
C33	C	0.745137	0.613331	0.606435
C34	C	0.996819	0.388677	0.108617
H20	H	0.822641	0.650506	0.592635
H21	H	0.574968	0.352851	0.095028
C35	C	0.749476	0.889206	0.603203
C36	C	0.501069	0.112232	0.104247
H22	H	0.670154	0.855123	0.588560
C37	C	0.907977	0.889383	0.727552
C38	C	0.659934	0.109547	0.227812
C39	C	0.588862	0.608983	0.727352
C40	C	0.840890	0.391633	0.229394
C41	C	0.546925	0.525079	0.651312
C42	C	0.797658	0.474711	0.152754
H23	H	0.968672	0.493231	0.673502
H24	H	0.718952	0.505201	0.175264
C43	C	0.608164	0.484270	0.550116
C44	C	0.857832	0.515656	0.050638
C45	C	0.933310	0.099319	0.466621
C46	C	0.681517	0.899720	0.965672
C47	C	0.567377	0.394474	0.470676
C48	C	0.816043	0.604172	0.969107
Ofg1	Ofg	0.471994	0.849774	0.829572
Cfg1	Cfg	0.441921	0.770588	0.914912
Cfg2	Cfg	0.533481	0.749492	0.012378
Hfg1	Hfg	0.369999	0.796661	0.968247
Hfg2	Hfg	0.423630	0.695995	0.859990
Cfg3	Cfg	0.504130	0.662375	0.109057
Hfg3	Hfg	0.605671	0.724210	0.959172
Hfg4	Hfg	0.552413	0.824168	0.066670
Hfg5	Hfg	0.486417	0.586405	0.057096
Hfg6	Hfg	0.572111	0.648897	0.178448
Hfg7	Hfg	0.433028	0.686605	0.164857
Ofg2	Ofg	0.899702	0.153613	0.076291
Cfg4	Cfg	0.850766	0.233295	0.146379
Cfg5	Cfg	0.740650	0.256496	0.085554
Hfg8	Hfg	0.900223	0.307094	0.144163
Hfg9	Hfg	0.841313	0.206896	0.248854
Cfg6	Cfg	0.683175	0.344225	0.159684
Hfg10	Hfg	0.691387	0.182615	0.086782
Hfg11	Hfg	0.749884	0.282112	0.982829
Hfg12	Hfg	0.671586	0.319697	0.262296
Hfg13	Hfg	0.603575	0.359237	0.113251
Hfg14	Hfg	0.730226	0.419438	0.158092
Ofg3	Ofg	0.344695	0.656866	0.579505
Cfg7	Cfg	0.392943	0.739254	0.648236
Cfg8	Cfg	0.501123	0.764170	0.589102
Hfg15	Hfg	0.405287	0.715229	0.751710
Hfg16	Hfg	0.341436	0.811620	0.642710
Cfg9	Cfg	0.557771	0.854920	0.661808
Hfg17	Hfg	0.489017	0.787410	0.485406
Hfg18	Hfg	0.552419	0.691697	0.593644
Hfg19	Hfg	0.508643	0.928777	0.656905
Hfg20	Hfg	0.635968	0.871122	0.616651
Hfg21	Hfg	0.572199	0.832832	0.765409
Ofg4	Ofg	0.277934	0.352620	0.329290
Cfg10	Cfg	0.307526	0.271505	0.413785
Cfg11	Cfg	0.217474	0.251842	0.508912
Hfg22	Hfg	0.381353	0.294783	0.469151
Hfg23	Hfg	0.322438	0.197123	0.357837
Cfg12	Cfg	0.246357	0.162676	0.604582
Hfg24	Hfg	0.143405	0.229361	0.453684
Hfg25	Hfg	0.201909	0.326334	0.564218
Hfg26	Hfg	0.260715	0.086896	0.551558
Hfg27	Hfg	0.179495	0.150298	0.672277
Hfg28	Hfg	0.319363	0.184104	0.662362
Ofg5	Ofg	0.971994	0.849775	0.829573
Cfg13	Cfg	0.941913	0.770603	0.914928
Cfg14	Cfg	0.033476	0.749501	0.012387
Hfg29	Hfg	0.923604	0.696006	0.860020
Hfg30	Hfg	0.870000	0.796696	0.968265
Cfg15	Cfg	0.004114	0.662406	0.109090
Hfg31	Hfg	0.052431	0.824180	0.066661
Hfg32	Hfg	0.105656	0.724194	0.959176
Hfg33	Hfg	0.933024	0.686663	0.164896
Hfg34	Hfg	0.072098	0.648921	0.178474
Hfg35	Hfg	0.986376	0.586433	0.057150
Ofg6	Ofg	0.724987	0.148152	0.329426
Cfg16	Cfg	0.696326	0.227476	0.415327
Cfg17	Cfg	0.788664	0.247288	0.512107
Hfg36	Hfg	0.624423	0.202103	0.469181
Hfg37	Hfg	0.678592	0.302404	0.360832
Cfg18	Cfg	0.760881	0.334507	0.609373
Hfg38	Hfg	0.860826	0.271866	0.458377
Hfg39	Hfg	0.807035	0.172271	0.565967
Hfg40	Hfg	0.743758	0.410797	0.557840
Hfg41	Hfg	0.829398	0.347039	0.678247
Hfg42	Hfg	0.689834	0.310962	0.665692
Ofg7	Ofg	0.525322	0.648105	0.826423
Cfg19	Cfg	0.553889	0.730057	0.910202
Cfg20	Cfg	0.463332	0.749567	0.004667
Hfg43	Hfg	0.568314	0.804186	0.853558
Hfg44	Hfg	0.627743	0.707819	0.966167
Cfg21	Cfg	0.491083	0.839633	0.099541
Hfg45	Hfg	0.448253	0.675320	0.060663
Hfg46	Hfg	0.389244	0.771012	0.948845
Hfg47	Hfg	0.564089	0.819246	0.157898
Hfg48	Hfg	0.423875	0.851878	0.166766
Hfg49	Hfg	0.504937	0.915173	0.045809
Ofg8	Ofg	0.777934	0.352620	0.329290
Cfg22	Cfg	0.807526	0.271505	0.413785
Cfg23	Cfg	0.717474	0.251842	0.508912
Hfg50	Hfg	0.881353	0.294783	0.469151
Hfg51	Hfg	0.822438	0.197123	0.357837
Cfg24	Cfg	0.746357	0.162676	0.604582
Hfg52	Hfg	0.643405	0.229361	0.453684
Hfg53	Hfg	0.701909	0.326334	0.564218
Hfg54	Hfg	0.760715	0.086896	0.551558
Hfg55	Hfg	0.679495	0.150298	0.672277
Hfg56	Hfg	0.819363	0.184104	0.662362

loop_
_geom_bond_atom_site_label_1
_geom_bond_atom_site_label_2
_geom_bond_distance
Ni1	O2	0.16599
Ni1	O4	0.16318
Ni1	O6	0.18273
Ni1	O8	0.18366
Ni1	N1	0.17612
Ni1	N3	0.17584
Ni2	O3	0.16282
Ni2	O5	0.18195
Ni2	N4	0.17757
Ni2	O9	0.16410
Ni2	O15	0.18358
Ni2	N6	0.17676
O1	C23	0.11387
O1	Ni4	0.16410
O2	C24	0.11378
O3	C21	0.11586
O4	C22	0.11585
O5	C47	0.10254
O6	C24	0.10252
O7	Ni4	0.18358
O7	C45	0.10305
O8	C22	0.10301
N1	C11	0.12347
N1	C13	0.10899
N2	C12	0.12355
N2	C14	0.10891
N2	Ni4	0.17676
N3	C9	0.12117
N3	C15	0.10822
N4	C10	0.12114
N4	C16	0.10817
C1	H1	0.09850
C1	C3	0.11328
C1	C11	0.12097
C2	C4	0.11325
C2	C12	0.12119
C2	H15	0.09852
H2	C26	0.09852
C3	C5	0.12757
C3	C21	0.12596
C4	C6	0.12764
C4	C22	0.12621
C5	C13	0.12008
C5	H16	0.08819
C6	H4	0.08814
C6	C14	0.12032
H3	C29	0.08819
C7	H5	0.09658
C7	C9	0.12152
C7	C19	0.11239
C8	C10	0.12175
C8	C20	0.11233
C8	H19	0.09661
H6	C32	0.09661
C9	Ofg3	0.11195
C10	H21	0.08704
H7	C34	0.08704
C11	H8	0.08757
C12	Ofg2	0.11300
H9	C36	0.08756
C13	Ofg1	0.12679
C14	H10	0.09914
C15	H11	0.09732
C15	C17	0.12075
C16	C18	0.12102
C16	Ofg4	0.12436
C17	C19	0.12512
C17	H23	0.08735
C18	H13	0.08736
C18	C20	0.12540
H12	C41	0.08735
C19	C23	0.12664
C20	C24	0.12739
C21	O15	0.10305
C23	O13	0.10254
Ni3	O10	0.16599
Ni3	O12	0.16318
Ni3	O14	0.18273
Ni3	O16	0.18366
Ni3	N5	0.17612
Ni3	N7	0.17584
Ni4	O11	0.16282
Ni4	O13	0.18195
Ni4	N8	0.17757
O9	C47	0.11388
O10	C48	0.11378
O11	C45	0.11586
O12	C46	0.11585
O14	C48	0.10252
O16	C46	0.10301
N5	C35	0.12347
N5	C37	0.10899
N6	C36	0.12355
N6	C38	0.10891
N7	C33	0.12117
N7	C39	0.10822
N8	C34	0.12114
N8	C40	0.10817
C25	H14	0.09850
C25	C27	0.11328
C25	C35	0.12097
C26	C28	0.11325
C26	C36	0.12119
C27	C29	0.12757
C27	C45	0.12596
C28	C30	0.12764
C28	C46	0.12621
C29	C37	0.12008
C30	H17	0.08814
C30	C38	0.12032
C31	H18	0.09658
C31	C33	0.12152
C31	C43	0.11239
C32	C34	0.12175
C32	C44	0.11233
C33	H20	0.08706
C35	H22	0.08757
C37	Ofg5	0.12679
C38	Ofg6	0.12668
C39	C41	0.12075
C39	Ofg7	0.12403
C40	C42	0.12102
C40	Ofg8	0.12436
C41	C43	0.12512
C42	H24	0.08736
C42	C44	0.12540
C43	C47	0.12664
C44	C48	0.12739
Ofg1	Cfg1	0.12024
Cfg1	Cfg2	0.13538
Cfg1	Hfg1	0.09326
Cfg1	Hfg2	0.09442
Cfg2	Cfg3	0.13341
Cfg2	Hfg3	0.09317
Cfg2	Hfg4	0.09425
Hfg1	Hfg2	0.15726
Cfg3	Hfg5	0.09373
Cfg3	Hfg6	0.09807
Cfg3	Hfg7	0.09357
Hfg3	Hfg4	0.15615
Hfg5	Hfg6	0.16117
Hfg5	Hfg7	0.15653
Hfg6	Hfg7	0.14474
Ofg2	Cfg4	0.11686
Cfg4	Cfg5	0.12792
Cfg4	Hfg8	0.08887
Cfg4	Hfg9	0.10624
Cfg5	Cfg6	0.12843
Cfg5	Hfg10	0.08881
Cfg5	Hfg11	0.10627
Hfg8	Hfg9	0.15643
Cfg6	Hfg12	0.10614
Cfg6	Hfg13	0.09337
Cfg6	Hfg14	0.08873
Hfg10	Hfg11	0.15533
Hfg12	Hfg13	0.16853
Hfg12	Hfg14	0.15571
Hfg13	Hfg14	0.14723
Ofg3	Cfg7	0.11764
Cfg7	Cfg8	0.12578
Cfg7	Hfg15	0.10694
Cfg7	Hfg16	0.08900
Cfg8	Cfg9	0.12935
Cfg8	Hfg17	0.10695
Cfg8	Hfg18	0.08891
Hfg15	Hfg16	0.15890
Cfg9	Hfg19	0.08884
Cfg9	Hfg20	0.09174
Cfg9	Hfg21	0.10691
Hfg17	Hfg18	0.15779
Hfg19	Hfg20	0.14545
Hfg19	Hfg21	0.15817
Hfg20	Hfg21	0.16632
Ofg4	Cfg10	0.12081
Cfg10	Cfg11	0.13246
Cfg10	Hfg22	0.09517
Cfg10	Hfg23	0.09426
Cfg11	Cfg12	0.13393
Cfg11	Hfg24	0.09509
Cfg11	Hfg25	0.09407
Hfg22	Hfg23	0.15937
Cfg12	Hfg26	0.09360
Cfg12	Hfg27	0.09595
Cfg12	Hfg28	0.09554
Hfg24	Hfg25	0.15825
Hfg26	Hfg27	0.15871
Hfg26	Hfg28	0.15864
Hfg27	Hfg28	0.14424
Ofg5	Cfg13	0.12024
Cfg13	Cfg14	0.13538
Cfg13	Hfg29	0.09442
Cfg13	Hfg30	0.09326
Cfg14	Cfg15	0.13341
Cfg14	Hfg31	0.09424
Cfg14	Hfg32	0.09318
Hfg29	Hfg30	0.15725
Cfg15	Hfg33	0.09358
Cfg15	Hfg34	0.09807
Cfg15	Hfg35	0.09372
Hfg31	Hfg32	0.15615
Hfg33	Hfg34	0.14474
Hfg33	Hfg35	0.15653
Hfg34	Hfg35	0.16116
Ofg6	Cfg16	0.12039
Cfg16	Cfg17	0.13522
Cfg16	Hfg36	0.09335
Cfg16	Hfg37	0.09433
Cfg17	Cfg18	0.13356
Cfg17	Hfg38	0.09327
Cfg17	Hfg39	0.09416
Hfg36	Hfg37	0.15727
Cfg18	Hfg40	0.09364
Cfg18	Hfg41	0.09795
Cfg18	Hfg42	0.09367
Hfg38	Hfg39	0.15617
Hfg40	Hfg41	0.16093
Hfg40	Hfg42	0.15655
Hfg41	Hfg42	0.14470
Ofg7	Cfg19	0.12063
Cfg19	Cfg20	0.13231
Cfg19	Hfg43	0.09440
Cfg19	Hfg44	0.09529
Cfg20	Cfg21	0.13373
Cfg20	Hfg45	0.09421
Cfg20	Hfg46	0.09521
Hfg43	Hfg44	0.15968
Cfg21	Hfg47	0.09566
Cfg21	Hfg48	0.09584
Cfg21	Hfg49	0.09373
Hfg45	Hfg46	0.15856
Hfg47	Hfg48	0.14423
Hfg47	Hfg49	0.15895
Hfg48	Hfg49	0.15877
Ofg8	Cfg22	0.12081
Cfg22	Cfg23	0.13246
Cfg22	Hfg50	0.09517
Cfg22	Hfg51	0.09426
Cfg23	Cfg24	0.13393
Cfg23	Hfg52	0.09509
Hfg50	Hfg51	0.15937
