data_NiPyC2_relax_sc211_NiPyC2_relax_sc211_aligned_P-2CH3_NiPyC2_relax_sc211_aligned_P-2CH3_NiPyC2_relax_sc211_aligned_P-2CH3_NiPyC2_relax_sc211_aligned_P-2CH3_NiPyC2_relax_sc211_aligned_P-2CH3_NiPyC2_relax_sc211_aligned_P-2CH3_NiPyC2_relax_sc211_aligned_P-2CH3_NiPyC2_relax_sc211_aligned_P-2CH3_PM
_symmetry_space_group_name_H-M	'P1'
_cell_length_a	12.505600
_cell_length_b	12.523400
_cell_length_c	10.276800
_cell_angle_alpha	90.000000
_cell_angle_beta	91.269000
_cell_angle_gamma	90.000000
_symmetry_Int_Tables_number 1

loop_
_symmetry_equiv_pos_as_xyz
'x,y,z'

loop_
_atom_site_label
_atom_site_type_symbol
_atom_site_fract_x
_atom_site_fract_y
_atom_site_fract_z
Ni1	Ni	0.247002	0.751486	0.836326
Ni2	Ni	0.499972	0.247999	0.339178
O1	O	0.122778	0.347689	0.382873
O2	O	0.371208	0.650977	0.881292
O3	O	0.377630	0.147507	0.377178
O4	O	0.125098	0.852352	0.876261
O5	O	0.473069	0.356160	0.482994
O6	O	0.221137	0.641415	0.979877
O7	O	0.028840	0.135158	0.481078
O8	O	0.276686	0.862758	0.979399
N1	N	0.308437	0.851253	0.704828
N2	N	0.060729	0.148857	0.206052
N3	N	0.186542	0.650310	0.705838
N4	N	0.438810	0.350928	0.208041
C1	C	0.288212	0.970050	0.521984
C2	C	0.038379	0.031106	0.022308
H1	H	0.486538	0.002692	0.943499
C3	C	0.390634	0.011770	0.546492
C4	C	0.140244	0.987744	0.046146
C5	C	0.451915	0.970202	0.650371
C6	C	0.202520	0.028353	0.149893
H2	H	0.032063	0.998805	0.673520
H3	H	0.282340	0.998665	0.172602
C7	C	0.208181	0.529704	0.526384
C8	C	0.458545	0.471409	0.027904
C9	C	0.245137	0.613331	0.606435
C10	C	0.496819	0.388677	0.108617
H4	H	0.322641	0.650506	0.592635
H5	H	0.074968	0.352851	0.095028
C11	C	0.249476	0.889206	0.603203
C12	C	0.001069	0.112232	0.104247
H6	H	0.170154	0.855123	0.588560
H7	H	0.422322	0.147732	0.089886
C13	C	0.407977	0.889383	0.727552
C14	C	0.159935	0.109547	0.227812
H8	H	0.453370	0.855173	0.808761
H9	H	0.206239	0.143103	0.308797
C15	C	0.088862	0.608983	0.727352
C16	C	0.340890	0.391633	0.229394
H10	H	0.043729	0.642944	0.806608
H11	H	0.296378	0.357526	0.309051
C17	C	0.046925	0.525079	0.651312
C18	C	0.297658	0.474711	0.152754
H12	H	0.468672	0.493231	0.673502
C19	C	0.108164	0.484270	0.550116
C20	C	0.357832	0.515656	0.050638
C21	C	0.433310	0.099319	0.466621
C22	C	0.181517	0.899720	0.965672
C23	C	0.067378	0.394474	0.470676
C24	C	0.316043	0.604172	0.969107
Ni3	Ni	0.747002	0.751486	0.836326
Ni4	Ni	0.999972	0.247999	0.339178
O9	O	0.622779	0.347689	0.382873
O10	O	0.871208	0.650977	0.881292
O11	O	0.877630	0.147507	0.377178
O12	O	0.625098	0.852352	0.876261
O13	O	0.973069	0.356160	0.482994
O14	O	0.721137	0.641415	0.979877
O15	O	0.528840	0.135158	0.481078
O16	O	0.776686	0.862758	0.979399
N5	N	0.808437	0.851253	0.704828
N6	N	0.560729	0.148857	0.206052
N7	N	0.686543	0.650310	0.705838
N8	N	0.938810	0.350928	0.208041
C25	C	0.788212	0.970050	0.521984
C26	C	0.538379	0.031106	0.022308
C27	C	0.890634	0.011770	0.546492
C28	C	0.640244	0.987744	0.046146
C29	C	0.951915	0.970202	0.650371
C30	C	0.702520	0.028353	0.149893
H13	H	0.532062	0.998805	0.673520
C31	C	0.708182	0.529704	0.526384
C32	C	0.958546	0.471409	0.027904
H14	H	0.508641	0.500397	0.950548
C33	C	0.745137	0.613331	0.606435
C34	C	0.996819	0.388677	0.108617
H15	H	0.822641	0.650506	0.592635
H16	H	0.574968	0.352851	0.095028
C35	C	0.749476	0.889206	0.603203
C36	C	0.501069	0.112232	0.104247
H17	H	0.670154	0.855123	0.588560
H18	H	0.922322	0.147732	0.089886
C37	C	0.907977	0.889383	0.727552
C38	C	0.659934	0.109547	0.227812
H19	H	0.953370	0.855173	0.808761
H20	H	0.706240	0.143103	0.308797
C39	C	0.588862	0.608983	0.727352
C40	C	0.840890	0.391633	0.229394
H21	H	0.543729	0.642944	0.806608
H22	H	0.796378	0.357526	0.309051
C41	C	0.546925	0.525079	0.651312
C42	C	0.797658	0.474711	0.152754
H23	H	0.968672	0.493231	0.673502
H24	H	0.718952	0.505201	0.175264
C43	C	0.608164	0.484270	0.550116
C44	C	0.857832	0.515656	0.050638
C45	C	0.933310	0.099319	0.466621
C46	C	0.681517	0.899720	0.965672
C47	C	0.567377	0.394474	0.470676
C48	C	0.816043	0.604172	0.969107
Pfg1	Pfg	0.200347	0.019360	0.383310
Cfg1	Cfg	0.083692	0.925791	0.380160
Hfg1	Hfg	0.033378	0.940280	0.465955
Hfg2	Hfg	0.110585	0.841331	0.378771
Hfg3	Hfg	0.034694	0.940810	0.290727
Cfg2	Cfg	0.272892	0.952865	0.248468
Hfg4	Hfg	0.353023	0.988875	0.237054
Hfg5	Hfg	0.226432	0.963153	0.156101
Hfg6	Hfg	0.282832	0.866396	0.268961
Pfg2	Pfg	0.949415	0.983698	0.883681
Cfg3	Cfg	0.834194	0.079019	0.881603
Hfg7	Hfg	0.783898	0.064935	0.967513
Hfg8	Hfg	0.862360	0.163070	0.880648
Hfg9	Hfg	0.784739	0.065102	0.792267
Cfg4	Cfg	0.022596	0.049649	0.748966
Hfg10	Hfg	0.102135	0.012488	0.736996
Hfg11	Hfg	0.975743	0.040437	0.656716
Hfg12	Hfg	0.033901	0.135873	0.769976
Pfg3	Pfg	0.294827	0.481854	0.390634
Cfg5	Cfg	0.407389	0.580160	0.387434
Hfg13	Hfg	0.460246	0.569210	0.474536
Hfg14	Hfg	0.376922	0.663380	0.383492
Hfg15	Hfg	0.454939	0.565736	0.299292
Cfg6	Cfg	0.216438	0.543015	0.252805
Hfg16	Hfg	0.137616	0.503497	0.240741
Hfg17	Hfg	0.261185	0.533161	0.161565
Hfg18	Hfg	0.203329	0.629313	0.271019
Pfg4	Pfg	0.161001	0.527694	0.190713
Cfg7	Cfg	0.109828	0.434211	0.316963
Hfg19	Hfg	0.154601	0.446322	0.410198
Hfg20	Hfg	0.116807	0.349848	0.285103
Hfg21	Hfg	0.024108	0.451648	0.332688
Cfg8	Cfg	0.086725	0.464958	0.050658
Hfg22	Hfg	0.110860	0.501296	0.957551
Hfg23	Hfg	0.999666	0.477748	0.062214
Hfg24	Hfg	0.103326	0.377981	0.047043
Pfg5	Pfg	0.700347	0.019360	0.383310
Cfg9	Cfg	0.583692	0.925791	0.380160
Hfg25	Hfg	0.533378	0.940280	0.465955
Hfg26	Hfg	0.610585	0.841331	0.378771
Hfg27	Hfg	0.534694	0.940810	0.290727
Cfg10	Cfg	0.772892	0.952865	0.248468
Hfg28	Hfg	0.853023	0.988875	0.237054
Hfg29	Hfg	0.726432	0.963153	0.156101
Hfg30	Hfg	0.782832	0.866396	0.268961
Pfg6	Pfg	0.841231	0.977389	0.188468
Cfg11	Cfg	0.894239	0.070002	0.317360
Hfg31	Hfg	0.852313	0.055745	0.409773
Hfg32	Hfg	0.884814	0.154659	0.287208
Hfg33	Hfg	0.980722	0.053937	0.333795
Cfg12	Cfg	0.910413	0.043464	0.050685
Hfg34	Hfg	0.884325	0.008009	0.956497
Hfg35	Hfg	0.998032	0.032128	0.063068
Hfg36	Hfg	0.892113	0.130156	0.048713
Pfg7	Pfg	0.794524	0.482317	0.390108
Cfg13	Cfg	0.924116	0.554635	0.416410
Hfg37	Hfg	0.913466	0.640600	0.393497
Hfg38	Hfg	0.954567	0.544889	0.518001
Hfg39	Hfg	0.984266	0.520982	0.350096
Cfg14	Cfg	0.840026	0.354413	0.466901
Hfg40	Hfg	0.772433	0.297758	0.474290
Hfg41	Hfg	0.902385	0.317683	0.406171
Hfg42	Hfg	0.873638	0.369411	0.566053
Pfg8	Pfg	0.044934	0.519869	0.891972
Cfg15	Cfg	0.158961	0.423215	0.889980
Hfg43	Hfg	0.211428	0.435386	0.977183
Hfg44	Hfg	0.129744	0.339538	0.886594
Hfg45	Hfg	0.206523	0.437888	0.801908
Cfg16	Cfg	0.967815	0.456860	0.754355
Hfg46	Hfg	0.888439	0.495152	0.741682
Hfg47	Hfg	0.012650	0.466905	0.663212
Hfg48	Hfg	0.955943	0.370474	0.773212

loop_
_geom_bond_atom_site_label_1
_geom_bond_atom_site_label_2
_geom_bond_distance
Ni1	O2	0.16599
Ni1	O4	0.16318
Ni1	O6	0.18273
Ni1	O8	0.18366
Ni1	N1	0.17612
Ni1	N3	0.17584
Ni2	O3	0.16282
Ni2	O5	0.18195
Ni2	N4	0.17757
Ni2	O9	0.16410
Ni2	O15	0.18358
Ni2	N6	0.17676
O1	C23	0.11387
O1	Ni4	0.16410
O2	C24	0.11378
O3	C21	0.11586
O4	C22	0.11585
O5	C47	0.10254
O6	C24	0.10252
O7	Ni4	0.18358
O7	C45	0.10305
O8	C22	0.10301
N1	C11	0.12347
N1	C13	0.10899
N2	C12	0.12355
N2	C14	0.10891
N2	Ni4	0.17676
N3	C9	0.12117
N3	C15	0.10822
N4	C10	0.12114
N4	C16	0.10817
C1	C3	0.11328
C1	C11	0.12097
C1	Pfg1	0.17141
C2	C4	0.11325
C2	C12	0.12119
C2	Pfg2	0.17140
H1	C26	0.09852
C3	C5	0.12757
C3	C21	0.12596
C4	C6	0.12764
C4	C22	0.12621
C5	C13	0.12008
C5	H13	0.08819
C6	H3	0.08814
C6	C14	0.12032
H2	C29	0.08819
C7	C9	0.12152
C7	C19	0.11239
C7	Pfg3	0.16800
C8	C10	0.12175
C8	C20	0.11233
C8	H14	0.09661
C9	H4	0.08706
C10	H16	0.08704
H5	C34	0.08704
C11	H6	0.08757
C12	H18	0.08756
H7	C36	0.08756
C13	H8	0.09912
C14	H9	0.09914
C15	H10	0.09732
C15	C17	0.12075
C16	H11	0.09742
C16	C18	0.12102
C17	C19	0.12512
C17	H23	0.08735
C18	C20	0.12540
C18	Pfg4	0.15140
H12	C41	0.08735
C19	C23	0.12664
C20	C24	0.12739
C21	O15	0.10305
C23	O13	0.10254
Ni3	O10	0.16599
Ni3	O12	0.16318
Ni3	O14	0.18273
Ni3	O16	0.18366
Ni3	N5	0.17612
Ni3	N7	0.17584
Ni4	O11	0.16282
Ni4	O13	0.18195
Ni4	N8	0.17757
O9	C47	0.11388
O10	C48	0.11378
O11	C45	0.11586
O12	C46	0.11585
O14	C48	0.10252
O16	C46	0.10301
N5	C35	0.12347
N5	C37	0.10899
N6	C36	0.12355
N6	C38	0.10891
N7	C33	0.12117
N7	C39	0.10822
N8	C34	0.12114
N8	C40	0.10817
C25	C27	0.11328
C25	C35	0.12097
C25	Pfg5	0.17141
C26	C28	0.11325
C26	C36	0.12119
C27	C29	0.12757
C27	C45	0.12596
C28	C30	0.12764
C28	C46	0.12621
C29	C37	0.12008
C30	C38	0.12032
C30	Pfg6	0.15273
C31	C33	0.12152
C31	C43	0.11239
C31	Pfg7	0.16814
C32	C34	0.12175
C32	C44	0.11233
C32	Pfg8	0.16819
C33	H15	0.08706
C35	H17	0.08757
C37	H19	0.09912
C38	H20	0.09914
C39	H21	0.09732
C39	C41	0.12075
C40	H22	0.09742
C40	C42	0.12102
C41	C43	0.12512
C42	H24	0.08736
C42	C44	0.12540
C43	C47	0.12664
C44	C48	0.12739
Pfg1	Cfg1	0.14958
Pfg1	Cfg2	0.16693
Cfg1	Hfg1	0.10051
Cfg1	Hfg2	0.08865
Cfg1	Hfg3	0.10308
Hfg1	Hfg2	0.15282
Hfg1	Hfg3	0.17523
Hfg2	Hfg3	0.15299
Cfg2	Hfg4	0.08859
Cfg2	Hfg5	0.10390
Cfg2	Hfg6	0.08942
Hfg4	Hfg5	0.15245
Hfg4	Hfg6	0.14473
Hfg5	Hfg6	0.15900
Pfg2	Cfg3	0.14955
Pfg2	Cfg4	0.16689
Cfg3	Hfg7	0.10054
Cfg3	Hfg8	0.08865
Cfg3	Hfg9	0.10305
Hfg7	Hfg8	0.15275
Hfg7	Hfg9	0.17525
Hfg8	Hfg9	0.15308
Cfg4	Hfg10	0.08860
Cfg4	Hfg11	0.10388
Cfg4	Hfg12	0.08946
Hfg10	Hfg11	0.15232
Hfg10	Hfg12	0.14480
Hfg11	Hfg12	0.15912
Pfg3	Cfg5	0.14948
Pfg3	Cfg6	0.16995
Cfg5	Hfg13	0.10247
Cfg5	Hfg14	0.08871
Cfg5	Hfg15	0.10118
Hfg13	Hfg14	0.15524
Hfg13	Hfg15	0.17536
Hfg14	Hfg15	0.15070
Cfg6	Hfg16	0.08900
Cfg6	Hfg17	0.10210
Cfg6	Hfg18	0.08917
Hfg16	Hfg17	0.14973
Hfg16	Hfg18	0.14514
Hfg17	Hfg18	0.15676
Pfg4	Cfg7	0.16522
Pfg4	Cfg8	0.17049
Cfg7	Hfg19	0.10413
Cfg7	Hfg20	0.09045
Cfg7	Hfg21	0.08888
Hfg19	Hfg20	0.16243
Hfg19	Hfg21	0.15187
Hfg20	Hfg21	0.14567
Cfg8	Hfg22	0.10282
Cfg8	Hfg23	0.08875
Cfg8	Hfg24	0.08862
Hfg22	Hfg23	0.15451
Hfg22	Hfg24	0.15255
Hfg23	Hfg24	0.14467
Pfg5	Cfg9	0.14958
Pfg5	Cfg10	0.16693
Cfg9	Hfg25	0.10051
Cfg9	Hfg26	0.08865
Cfg9	Hfg27	0.10308
Hfg25	Hfg26	0.15282
Hfg25	Hfg27	0.17523
Hfg26	Hfg27	0.15299
Cfg10	Hfg28	0.08859
Cfg10	Hfg29	0.10390
Cfg10	Hfg30	0.08942
Hfg28	Hfg29	0.15245
Hfg28	Hfg30	0.14473
Hfg29	Hfg30	0.15900
Pfg6	Cfg11	0.16733
Pfg6	Cfg12	0.16774
Cfg11	Hfg31	0.10248
Cfg11	Hfg32	0.09036
Cfg11	Hfg33	0.08948
Hfg31	Hfg32	0.16082
Hfg31	Hfg33	0.14921
Hfg32	Hfg33	0.14668
Cfg12	Hfg34	0.10397
Cfg12	Hfg35	0.08921
Cfg12	Hfg36	0.08862
Hfg34	Hfg35	0.15770
Hfg34	Hfg36	0.15325
Hfg35	Hfg36	0.14503
Pfg7	Cfg13	0.15072
Pfg7	Cfg14	0.15597
Cfg13	Hfg37	0.08960
Cfg13	Hfg38	0.10650
Cfg13	Hfg39	0.09565
Hfg37	Hfg38	0.16233
Hfg37	Hfg39	0.14562
Hfg38	Hfg39	0.17218
Cfg14	Hfg40	0.08851
Cfg14	Hfg41	0.09448
Cfg14	Hfg42	0.10576
Hfg40	Hfg41	0.14807
Hfg40	Hfg42	0.15426
Hfg41	Hfg42	0.17048
Pfg8	Cfg15	0.14949
Pfg8	Cfg16	0.16987
Cfg15	Hfg43	0.10249
Cfg15	Hfg44	0.08870
Cfg15	Hfg45	0.10116
Hfg43	Hfg44	0.15513
Hfg43	Hfg45	0.17536
Hfg44	Hfg45	0.15080
Cfg16	Hfg46	0.08904
Cfg16	Hfg47	0.10207
Cfg16	Hfg48	0.08921
Hfg46	Hfg47	0.14961
Hfg46	Hfg48	0.14524
Hfg47	Hfg48	0.15689
