data_NiPyC2_relax_sc211_NiPyC2_relax_sc211_aligned_CH2-CH2-CH3_NiPyC2_relax_sc211_aligned_CH2-CH2-CH3_NiPyC2_relax_sc211_aligned_CH2-CH2-CH3_NiPyC2_relax_sc211_aligned_CH2-CH2-CH3_NiPyC2_relax_sc211_aligned_CH2-CH2-CH3_NiPyC2_relax_sc211_aligned_CH2-CH2-CH3_NiPyC2_relax_sc211_aligned_CH2-CH2-CH3_NiPyC2_relax_sc211_aligned_CH2-CH2-CH3_PM
_symmetry_space_group_name_H-M	'P1'
_cell_length_a	12.505600
_cell_length_b	12.523400
_cell_length_c	10.276800
_cell_angle_alpha	90.000000
_cell_angle_beta	91.269000
_cell_angle_gamma	90.000000
_symmetry_Int_Tables_number 1

loop_
_symmetry_equiv_pos_as_xyz
'x,y,z'

loop_
_atom_site_label
_atom_site_type_symbol
_atom_site_fract_x
_atom_site_fract_y
_atom_site_fract_z
Ni1	Ni	0.247002	0.751486	0.836326
Ni2	Ni	0.499972	0.247999	0.339178
O1	O	0.122778	0.347689	0.382873
O2	O	0.371208	0.650977	0.881292
O3	O	0.377630	0.147507	0.377178
O4	O	0.125098	0.852352	0.876261
O5	O	0.473069	0.356160	0.482994
O6	O	0.221137	0.641415	0.979877
O7	O	0.028840	0.135158	0.481078
O8	O	0.276686	0.862758	0.979399
N1	N	0.308437	0.851253	0.704828
N2	N	0.060729	0.148857	0.206052
N3	N	0.186542	0.650310	0.705838
N4	N	0.438810	0.350928	0.208041
C1	C	0.288212	0.970050	0.521984
C2	C	0.038379	0.031106	0.022308
H1	H	0.237124	0.999575	0.443113
H2	H	0.486538	0.002692	0.943499
C3	C	0.390634	0.011770	0.546492
C4	C	0.140244	0.987744	0.046146
C5	C	0.451915	0.970202	0.650371
C6	C	0.202520	0.028353	0.149893
H3	H	0.032063	0.998805	0.673520
H4	H	0.282340	0.998665	0.172602
C7	C	0.208181	0.529704	0.526384
C8	C	0.458545	0.471409	0.027904
H5	H	0.258700	0.500895	0.449282
H6	H	0.008641	0.500397	0.950548
C9	C	0.245137	0.613331	0.606435
C10	C	0.496819	0.388677	0.108617
C11	C	0.249476	0.889206	0.603203
C12	C	0.001069	0.112232	0.104247
C13	C	0.407977	0.889383	0.727552
C14	C	0.159935	0.109547	0.227812
H7	H	0.453370	0.855173	0.808761
H8	H	0.206239	0.143103	0.308797
C15	C	0.088862	0.608983	0.727352
C16	C	0.340890	0.391633	0.229394
H9	H	0.043729	0.642944	0.806608
H10	H	0.296378	0.357526	0.309051
C17	C	0.046925	0.525079	0.651312
C18	C	0.297658	0.474711	0.152754
H11	H	0.468672	0.493231	0.673502
H12	H	0.218952	0.505201	0.175264
C19	C	0.108164	0.484270	0.550116
C20	C	0.357832	0.515656	0.050638
C21	C	0.433310	0.099319	0.466621
C22	C	0.181517	0.899720	0.965672
C23	C	0.067378	0.394474	0.470676
C24	C	0.316043	0.604172	0.969107
Ni3	Ni	0.747002	0.751486	0.836326
Ni4	Ni	0.999972	0.247999	0.339178
O9	O	0.622779	0.347689	0.382873
O10	O	0.871208	0.650977	0.881292
O11	O	0.877630	0.147507	0.377178
O12	O	0.625098	0.852352	0.876261
O13	O	0.973069	0.356160	0.482994
O14	O	0.721137	0.641415	0.979877
O15	O	0.528840	0.135158	0.481078
O16	O	0.776686	0.862758	0.979399
N5	N	0.808437	0.851253	0.704828
N6	N	0.560729	0.148857	0.206052
N7	N	0.686543	0.650310	0.705838
N8	N	0.938810	0.350928	0.208041
C25	C	0.788212	0.970050	0.521984
C26	C	0.538379	0.031106	0.022308
H13	H	0.737124	0.999575	0.443113
H14	H	0.986538	0.002692	0.943499
C27	C	0.890634	0.011770	0.546492
C28	C	0.640244	0.987744	0.046146
C29	C	0.951915	0.970202	0.650371
C30	C	0.702520	0.028353	0.149893
H15	H	0.532062	0.998805	0.673520
H16	H	0.782340	0.998665	0.172602
C31	C	0.708182	0.529704	0.526384
C32	C	0.958546	0.471409	0.027904
H17	H	0.758700	0.500895	0.449282
H18	H	0.508641	0.500397	0.950548
C33	C	0.745137	0.613331	0.606435
C34	C	0.996819	0.388677	0.108617
H19	H	0.822641	0.650506	0.592635
C35	C	0.749476	0.889206	0.603203
C36	C	0.501069	0.112232	0.104247
H20	H	0.670154	0.855123	0.588560
C37	C	0.907977	0.889383	0.727552
C38	C	0.659934	0.109547	0.227812
H21	H	0.706240	0.143103	0.308797
C39	C	0.588862	0.608983	0.727352
C40	C	0.840890	0.391633	0.229394
H22	H	0.796378	0.357526	0.309051
C41	C	0.546925	0.525079	0.651312
C42	C	0.797658	0.474711	0.152754
H23	H	0.968672	0.493231	0.673502
H24	H	0.718952	0.505201	0.175264
C43	C	0.608164	0.484270	0.550116
C44	C	0.857832	0.515656	0.050638
C45	C	0.933310	0.099319	0.466621
C46	C	0.681517	0.899720	0.965672
C47	C	0.567377	0.394474	0.470676
C48	C	0.816043	0.604172	0.969107
Cfg1	Cfg	0.135147	0.842655	0.574231
Cfg2	Cfg	0.097715	0.754411	0.666881
Hfg1	Hfg	0.076441	0.909097	0.579478
Hfg2	Hfg	0.133837	0.808569	0.474320
Cfg3	Cfg	0.985579	0.715598	0.628890
Hfg3	Hfg	0.153275	0.685233	0.662966
Hfg4	Hfg	0.095917	0.785698	0.768057
Hfg5	Hfg	0.984568	0.682267	0.528693
Hfg6	Hfg	0.960663	0.652081	0.697248
Hfg7	Hfg	0.927380	0.782436	0.633472
Cfg4	Cfg	0.887439	0.160695	0.075809
Cfg5	Cfg	0.851533	0.249113	0.169138
Hfg8	Hfg	0.886539	0.195229	0.976131
Hfg9	Hfg	0.827697	0.095159	0.080722
Cfg6	Cfg	0.739982	0.289843	0.131639
Hfg10	Hfg	0.849370	0.217421	0.270107
Hfg11	Hfg	0.908176	0.317426	0.165582
Hfg12	Hfg	0.680737	0.223907	0.135885
Hfg13	Hfg	0.716166	0.353448	0.200481
Hfg14	Hfg	0.739369	0.323617	0.031668
Cfg7	Cfg	0.356756	0.664262	0.579077
Cfg8	Cfg	0.392244	0.755483	0.670523
Hfg15	Hfg	0.418374	0.600480	0.587246
Hfg16	Hfg	0.354596	0.696775	0.478390
Cfg9	Cfg	0.501878	0.798433	0.634211
Hfg17	Hfg	0.333679	0.822153	0.663695
Hfg18	Hfg	0.397415	0.725918	0.772482
Hfg19	Hfg	0.499446	0.830175	0.533249
Hfg20	Hfg	0.525430	0.864033	0.701656
Hfg21	Hfg	0.562994	0.734223	0.641712
Cfg10	Cfg	0.609456	0.339704	0.081768
Cfg11	Cfg	0.646449	0.249440	0.173787
Hfg22	Hfg	0.669883	0.404622	0.089752
Hfg23	Hfg	0.608072	0.306832	0.981255
Cfg12	Cfg	0.756921	0.208375	0.137986
Hfg24	Hfg	0.589125	0.181694	0.167167
Hfg25	Hfg	0.650896	0.279424	0.275595
Hfg26	Hfg	0.755252	0.176268	0.037193
Hfg27	Hfg	0.781553	0.143433	0.205838
Hfg28	Hfg	0.816839	0.273710	0.145299
Cfg13	Cfg	0.977604	0.842901	0.843153
Cfg14	Cfg	0.924995	0.754678	0.923924
Hfg29	Hfg	0.998362	0.909395	0.910791
Hfg30	Hfg	0.051917	0.808830	0.802665
Cfg15	Cfg	0.000175	0.715970	0.033097
Hfg31	Hfg	0.904577	0.685450	0.860358
Hfg32	Hfg	0.851055	0.785953	0.968413
Hfg33	Hfg	0.074574	0.682654	0.992155
Hfg34	Hfg	0.960223	0.652466	0.089675
Hfg35	Hfg	0.021211	0.782860	0.099890
Cfg16	Cfg	0.387439	0.160695	0.075809
Cfg17	Cfg	0.351533	0.249113	0.169138
Hfg36	Hfg	0.386539	0.195229	0.976131
Hfg37	Hfg	0.327697	0.095159	0.080722
Cfg18	Cfg	0.239982	0.289843	0.131639
Hfg38	Hfg	0.349370	0.217421	0.270107
Hfg39	Hfg	0.408176	0.317426	0.165582
Hfg40	Hfg	0.180737	0.223907	0.135885
Hfg41	Hfg	0.216166	0.353448	0.200481
Hfg42	Hfg	0.239369	0.323617	0.031668
Cfg19	Cfg	0.519695	0.655029	0.839651
Cfg20	Cfg	0.570344	0.746800	0.919156
Hfg43	Hfg	0.443367	0.685400	0.796235
Hfg44	Hfg	0.502742	0.589157	0.908722
Cfg21	Cfg	0.495695	0.784763	0.025233
Hfg45	Hfg	0.646263	0.719290	0.966483
Hfg46	Hfg	0.586925	0.815470	0.854065
Hfg47	Hfg	0.478465	0.718469	0.093467
Hfg48	Hfg	0.534206	0.850871	0.080953
Hfg49	Hfg	0.419303	0.814364	0.981381
Cfg22	Cfg	0.109455	0.339702	0.081767
Cfg23	Cfg	0.146445	0.249434	0.173781
Hfg50	Hfg	0.108070	0.306831	0.981252
Hfg51	Hfg	0.169883	0.404618	0.089752
Cfg24	Cfg	0.256915	0.208365	0.137978
Hfg52	Hfg	0.150894	0.279414	0.275591
Hfg53	Hfg	0.089118	0.181690	0.167158
Hfg54	Hfg	0.316837	0.273697	0.145295
Hfg55	Hfg	0.281544	0.143420	0.205826
Hfg56	Hfg	0.255244	0.176263	0.037183

loop_
_geom_bond_atom_site_label_1
_geom_bond_atom_site_label_2
_geom_bond_distance
Ni1	O2	0.16599
Ni1	O4	0.16318
Ni1	O6	0.18273
Ni1	O8	0.18366
Ni1	N1	0.17612
Ni1	N3	0.17584
Ni2	O3	0.16282
Ni2	O5	0.18195
Ni2	N4	0.17757
Ni2	O9	0.16410
Ni2	O15	0.18358
Ni2	N6	0.17676
O1	C23	0.11387
O1	Ni4	0.16410
O2	C24	0.11378
O3	C21	0.11586
O4	C22	0.11585
O5	C47	0.10254
O6	C24	0.10252
O7	Ni4	0.18358
O7	C45	0.10305
O8	C22	0.10301
N1	C11	0.12347
N1	C13	0.10899
N2	C12	0.12355
N2	C14	0.10891
N2	Ni4	0.17676
N3	C9	0.12117
N3	C15	0.10822
N4	C10	0.12114
N4	C16	0.10817
C1	H1	0.09850
C1	C3	0.11328
C1	C11	0.12097
C2	C4	0.11325
C2	C12	0.12119
C2	H14	0.09852
H2	C26	0.09852
C3	C5	0.12757
C3	C21	0.12596
C4	C6	0.12764
C4	C22	0.12621
C5	C13	0.12008
C5	H15	0.08819
C6	H4	0.08814
C6	C14	0.12032
H3	C29	0.08819
C7	H5	0.09658
C7	C9	0.12152
C7	C19	0.11239
C8	C10	0.12175
C8	C20	0.11233
C8	H18	0.09661
H6	C32	0.09661
C9	Cfg7	0.12570
C10	Cfg10	0.12572
C11	Cfg1	0.12680
C12	Cfg4	0.12676
C13	H7	0.09912
C14	H8	0.09914
C15	H9	0.09732
C15	C17	0.12075
C16	H10	0.09742
C16	C18	0.12102
C17	C19	0.12512
C17	H23	0.08735
C18	H12	0.08736
C18	C20	0.12540
H11	C41	0.08735
C19	C23	0.12664
C20	C24	0.12739
C21	O15	0.10305
C23	O13	0.10254
Ni3	O10	0.16599
Ni3	O12	0.16318
Ni3	O14	0.18273
Ni3	O16	0.18366
Ni3	N5	0.17612
Ni3	N7	0.17584
Ni4	O11	0.16282
Ni4	O13	0.18195
Ni4	N8	0.17757
O9	C47	0.11388
O10	C48	0.11378
O11	C45	0.11586
O12	C46	0.11585
O14	C48	0.10252
O16	C46	0.10301
N5	C35	0.12347
N5	C37	0.10899
N6	C36	0.12355
N6	C38	0.10891
N7	C33	0.12117
N7	C39	0.10822
N8	C34	0.12114
N8	C40	0.10817
C25	H13	0.09850
C25	C27	0.11328
C25	C35	0.12097
C26	C28	0.11325
C26	C36	0.12119
C27	C29	0.12757
C27	C45	0.12596
C28	C30	0.12764
C28	C46	0.12621
C29	C37	0.12008
C30	H16	0.08814
C30	C38	0.12032
C31	H17	0.09658
C31	C33	0.12152
C31	C43	0.11239
C32	C34	0.12175
C32	C44	0.11233
C33	H19	0.08706
C34	Cfg22	0.12572
C35	H20	0.08757
C36	Cfg16	0.12676
C37	Cfg13	0.14273
C38	H21	0.09914
C39	C41	0.12075
C39	Cfg19	0.13970
C40	H22	0.09742
C40	C42	0.12102
C41	C43	0.12512
C42	H24	0.08736
C42	C44	0.12540
C43	C47	0.12664
C44	C48	0.12739
Cfg1	Cfg2	0.13331
Cfg1	Hfg1	0.08882
Cfg1	Hfg2	0.10557
Cfg2	Cfg3	0.12460
Cfg2	Hfg3	0.08881
Cfg2	Hfg4	0.10592
Hfg1	Hfg2	0.15639
Cfg3	Hfg5	0.10560
Cfg3	Hfg6	0.09658
Cfg3	Hfg7	0.08874
Hfg3	Hfg4	0.15629
Hfg5	Hfg6	0.17290
Hfg5	Hfg7	0.15583
Hfg6	Hfg7	0.14889
Cfg4	Cfg5	0.13348
Cfg4	Hfg8	0.10549
Cfg4	Hfg9	0.08882
Cfg5	Cfg6	0.12453
Cfg5	Hfg10	0.10585
Cfg5	Hfg11	0.08881
Hfg8	Hfg9	0.15625
Cfg6	Hfg12	0.08874
Cfg6	Hfg13	0.09671
Cfg6	Hfg14	0.10552
Hfg10	Hfg11	0.15616
Hfg12	Hfg13	0.14903
Hfg12	Hfg14	0.15569
Hfg13	Hfg14	0.17299
Cfg7	Cfg8	0.13395
Cfg7	Hfg15	0.08906
Cfg7	Hfg16	0.10583
Cfg8	Cfg9	0.12322
Cfg8	Hfg17	0.08900
Cfg8	Hfg18	0.10628
Hfg15	Hfg16	0.15871
Cfg9	Hfg19	0.10586
Cfg9	Hfg20	0.09699
Cfg9	Hfg21	0.08896
Hfg17	Hfg18	0.15861
Hfg19	Hfg20	0.17373
Hfg19	Hfg21	0.15814
Hfg20	Hfg21	0.14783
Cfg10	Cfg11	0.13410
Cfg10	Hfg22	0.08905
Cfg10	Hfg23	0.10576
Cfg11	Cfg12	0.12318
Cfg11	Hfg24	0.08899
Cfg11	Hfg25	0.10622
Hfg22	Hfg23	0.15860
Cfg12	Hfg26	0.10580
Cfg12	Hfg27	0.09710
Cfg12	Hfg28	0.08895
Hfg24	Hfg25	0.15850
Hfg26	Hfg27	0.17381
Hfg26	Hfg28	0.15803
Hfg27	Hfg28	0.14793
Cfg13	Cfg14	0.13067
Cfg13	Hfg29	0.09709
Cfg13	Hfg30	0.09123
Cfg14	Cfg15	0.13809
Cfg14	Hfg31	0.09618
Cfg14	Hfg32	0.09179
Hfg29	Hfg30	0.15708
Cfg15	Hfg33	0.09122
Cfg15	Hfg34	0.09397
Cfg15	Hfg35	0.09684
Hfg31	Hfg32	0.15698
Hfg33	Hfg34	0.15329
Hfg33	Hfg35	0.15651
Hfg34	Hfg35	0.14431
Cfg16	Cfg17	0.13348
Cfg16	Hfg36	0.10549
Cfg16	Hfg37	0.08882
Cfg17	Cfg18	0.12453
Cfg17	Hfg38	0.10585
Cfg17	Hfg39	0.08881
Hfg36	Hfg37	0.15625
Cfg18	Hfg40	0.08874
Cfg18	Hfg41	0.09671
Cfg18	Hfg42	0.10552
Hfg38	Hfg39	0.15616
Hfg40	Hfg41	0.14903
Hfg40	Hfg42	0.15569
Hfg41	Hfg42	0.17299
Cfg19	Cfg20	0.13156
Cfg19	Hfg43	0.09292
Cfg19	Hfg44	0.09694
Cfg20	Cfg21	0.13515
Cfg20	Hfg45	0.09360
Cfg20	Hfg46	0.09606
Hfg43	Hfg44	0.15950
Cfg21	Hfg47	0.09668
Cfg21	Hfg48	0.09465
Cfg21	Hfg49	0.09292
Hfg45	Hfg46	0.15940
Hfg47	Hfg48	0.14420
Hfg47	Hfg49	0.15893
Hfg48	Hfg49	0.15636
Cfg22	Cfg23	0.13410
Cfg22	Hfg50	0.10576
Cfg22	Hfg51	0.08905
Cfg23	Cfg24	0.12318
Cfg23	Hfg52	0.10622
Cfg23	Hfg53	0.08899
Hfg50	Hfg51	0.15860
Cfg24	Hfg54	0.08895
Cfg24	Hfg55	0.09710
Cfg24	Hfg56	0.10580
Hfg52	Hfg53	0.15850
Hfg54	Hfg55	0.14792
Hfg54	Hfg56	0.15804
Hfg55	Hfg56	0.17381
