data_NiPyC2_relax_sc211_NiPyC2_relax_sc211_aligned_S-CH3_NiPyC2_relax_sc211_aligned_S-CH3_NiPyC2_relax_sc211_aligned_S-CH3_NiPyC2_relax_sc211_aligned_S-CH3_NiPyC2_relax_sc211_aligned_S-CH3_NiPyC2_relax_sc211_aligned_S-CH3_NiPyC2_relax_sc211_aligned_S-CH3_NiPyC2_relax_sc211_aligned_S-CH3_PM
_symmetry_space_group_name_H-M	'P1'
_cell_length_a	12.505600
_cell_length_b	12.523400
_cell_length_c	10.276800
_cell_angle_alpha	90.000000
_cell_angle_beta	91.269000
_cell_angle_gamma	90.000000
_symmetry_Int_Tables_number 1

loop_
_symmetry_equiv_pos_as_xyz
'x,y,z'

loop_
_atom_site_label
_atom_site_type_symbol
_atom_site_fract_x
_atom_site_fract_y
_atom_site_fract_z
Ni1	Ni	0.247002	0.751486	0.836326
Ni2	Ni	0.499972	0.247999	0.339178
O1	O	0.122778	0.347689	0.382873
O2	O	0.371208	0.650977	0.881292
O3	O	0.377630	0.147507	0.377178
O4	O	0.125098	0.852352	0.876261
O5	O	0.473069	0.356160	0.482994
O6	O	0.221137	0.641415	0.979877
O7	O	0.028840	0.135158	0.481078
O8	O	0.276686	0.862758	0.979399
N1	N	0.308437	0.851253	0.704828
N2	N	0.060729	0.148857	0.206052
N3	N	0.186542	0.650310	0.705838
N4	N	0.438810	0.350928	0.208041
C1	C	0.288212	0.970050	0.521984
C2	C	0.038379	0.031106	0.022308
C3	C	0.390634	0.011770	0.546492
C4	C	0.140244	0.987744	0.046146
C5	C	0.451915	0.970202	0.650371
C6	C	0.202520	0.028353	0.149893
H1	H	0.032063	0.998805	0.673520
C7	C	0.208181	0.529704	0.526384
C8	C	0.458545	0.471409	0.027904
H2	H	0.258700	0.500895	0.449282
H3	H	0.008641	0.500397	0.950548
C9	C	0.245137	0.613331	0.606435
C10	C	0.496819	0.388677	0.108617
H4	H	0.322641	0.650506	0.592635
H5	H	0.074968	0.352851	0.095028
C11	C	0.249476	0.889206	0.603203
C12	C	0.001069	0.112232	0.104247
H6	H	0.170154	0.855123	0.588560
H7	H	0.422322	0.147732	0.089886
C13	C	0.407977	0.889383	0.727552
C14	C	0.159935	0.109547	0.227812
H8	H	0.453370	0.855173	0.808761
H9	H	0.206239	0.143103	0.308797
C15	C	0.088862	0.608983	0.727352
C16	C	0.340890	0.391633	0.229394
H10	H	0.043729	0.642944	0.806608
H11	H	0.296378	0.357526	0.309051
C17	C	0.046925	0.525079	0.651312
C18	C	0.297658	0.474711	0.152754
H12	H	0.218952	0.505201	0.175264
C19	C	0.108164	0.484270	0.550116
C20	C	0.357832	0.515656	0.050638
C21	C	0.433310	0.099319	0.466621
C22	C	0.181517	0.899720	0.965672
C23	C	0.067378	0.394474	0.470676
C24	C	0.316043	0.604172	0.969107
Ni3	Ni	0.747002	0.751486	0.836326
Ni4	Ni	0.999972	0.247999	0.339178
O9	O	0.622779	0.347689	0.382873
O10	O	0.871208	0.650977	0.881292
O11	O	0.877630	0.147507	0.377178
O12	O	0.625098	0.852352	0.876261
O13	O	0.973069	0.356160	0.482994
O14	O	0.721137	0.641415	0.979877
O15	O	0.528840	0.135158	0.481078
O16	O	0.776686	0.862758	0.979399
N5	N	0.808437	0.851253	0.704828
N6	N	0.560729	0.148857	0.206052
N7	N	0.686543	0.650310	0.705838
N8	N	0.938810	0.350928	0.208041
C25	C	0.788212	0.970050	0.521984
C26	C	0.538379	0.031106	0.022308
H13	H	0.986538	0.002692	0.943499
C27	C	0.890634	0.011770	0.546492
C28	C	0.640244	0.987744	0.046146
C29	C	0.951915	0.970202	0.650371
C30	C	0.702520	0.028353	0.149893
H14	H	0.532062	0.998805	0.673520
H15	H	0.782340	0.998665	0.172602
C31	C	0.708182	0.529704	0.526384
C32	C	0.958546	0.471409	0.027904
H16	H	0.758700	0.500895	0.449282
C33	C	0.745137	0.613331	0.606435
C34	C	0.996819	0.388677	0.108617
H17	H	0.822641	0.650506	0.592635
H18	H	0.574968	0.352851	0.095028
C35	C	0.749476	0.889206	0.603203
C36	C	0.501069	0.112232	0.104247
H19	H	0.670154	0.855123	0.588560
H20	H	0.922322	0.147732	0.089886
C37	C	0.907977	0.889383	0.727552
C38	C	0.659934	0.109547	0.227812
H21	H	0.953370	0.855173	0.808761
H22	H	0.706240	0.143103	0.308797
C39	C	0.588862	0.608983	0.727352
C40	C	0.840890	0.391633	0.229394
H23	H	0.543729	0.642944	0.806608
H24	H	0.796378	0.357526	0.309051
C41	C	0.546925	0.525079	0.651312
C42	C	0.797658	0.474711	0.152754
C43	C	0.608164	0.484270	0.550116
C44	C	0.857832	0.515656	0.050638
C45	C	0.933310	0.099319	0.466621
C46	C	0.681517	0.899720	0.965672
C47	C	0.567377	0.394474	0.470676
C48	C	0.816043	0.604172	0.969107
Sfg1	Sfg	0.201096	0.013936	0.390100
Cfg1	Cfg	0.136204	0.115031	0.488028
Hfg1	Hfg	0.077384	0.158223	0.425143
Hfg2	Hfg	0.092168	0.077093	0.568438
Hfg3	Hfg	0.195639	0.174122	0.525031
Sfg2	Sfg	0.335978	0.982867	0.190545
Cfg2	Cfg	0.290308	0.881985	0.303964
Hfg4	Hfg	0.361097	0.837866	0.342495
Hfg5	Hfg	0.250288	0.920162	0.387328
Hfg6	Hfg	0.237111	0.823642	0.253296
Sfg3	Sfg	0.916088	0.476039	0.691138
Cfg3	Cfg	0.846559	0.571202	0.585622
Hfg7	Hfg	0.759462	0.555273	0.589920
Hfg8	Hfg	0.861065	0.654018	0.620203
Hfg9	Hfg	0.870768	0.560561	0.483166
Sfg4	Sfg	0.544175	0.514393	0.898657
Cfg4	Cfg	0.613826	0.612601	0.999742
Hfg10	Hfg	0.672520	0.654874	0.938905
Hfg11	Hfg	0.658477	0.572598	0.080558
Hfg12	Hfg	0.556768	0.672868	0.036347
Sfg5	Sfg	0.701096	0.013936	0.390100
Cfg5	Cfg	0.636204	0.115031	0.488028
Hfg13	Hfg	0.577384	0.158223	0.425143
Hfg14	Hfg	0.592168	0.077093	0.568438
Hfg15	Hfg	0.695639	0.174122	0.525031
Sfg6	Sfg	0.450005	0.988632	0.890978
Cfg6	Cfg	0.499156	0.088097	0.777944
Hfg16	Hfg	0.457200	0.076704	0.682737
Hfg17	Hfg	0.480951	0.169774	0.813066
Hfg18	Hfg	0.586049	0.076994	0.762707
Sfg7	Sfg	0.416088	0.476039	0.691138
Cfg7	Cfg	0.346559	0.571202	0.585622
Hfg19	Hfg	0.259462	0.555273	0.589920
Hfg20	Hfg	0.361065	0.654018	0.620203
Hfg21	Hfg	0.370768	0.560561	0.483166
Sfg8	Sfg	0.666478	0.522527	0.193232
Cfg8	Cfg	0.597474	0.425976	0.089125
Hfg22	Hfg	0.510240	0.440966	0.093978
Hfg23	Hfg	0.613098	0.343533	0.124342
Hfg24	Hfg	0.621009	0.436274	0.986368

loop_
_geom_bond_atom_site_label_1
_geom_bond_atom_site_label_2
_geom_bond_distance
Ni1	O2	0.16599
Ni1	O4	0.16318
Ni1	O6	0.18273
Ni1	O8	0.18366
Ni1	N1	0.17612
Ni1	N3	0.17584
Ni2	O3	0.16282
Ni2	O5	0.18195
Ni2	N4	0.17757
Ni2	O9	0.16410
Ni2	O15	0.18358
Ni2	N6	0.17676
O1	C23	0.11387
O1	Ni4	0.16410
O2	C24	0.11378
O3	C21	0.11586
O4	C22	0.11585
O5	C47	0.10254
O6	C24	0.10252
O7	Ni4	0.18358
O7	C45	0.10305
O8	C22	0.10301
N1	C11	0.12347
N1	C13	0.10899
N2	C12	0.12355
N2	C14	0.10891
N2	Ni4	0.17676
N3	C9	0.12117
N3	C15	0.10822
N4	C10	0.12114
N4	C16	0.10817
C1	C3	0.11328
C1	C11	0.12097
C1	Sfg1	0.16404
C2	C4	0.11325
C2	C12	0.12119
C2	H13	0.09852
C3	C5	0.12757
C3	C21	0.12596
C4	C6	0.12764
C4	C22	0.12621
C5	C13	0.12008
C5	H14	0.08819
C6	C14	0.12032
C6	Sfg2	0.14674
H1	C29	0.08819
C7	H2	0.09658
C7	C9	0.12152
C7	C19	0.11239
C8	C10	0.12175
C8	C20	0.11233
C8	Sfg4	0.16089
H3	C32	0.09661
C9	H4	0.08706
C10	H18	0.08704
H5	C34	0.08704
C11	H6	0.08757
C12	H20	0.08756
H7	C36	0.08756
C13	H8	0.09912
C14	H9	0.09914
C15	H10	0.09732
C15	C17	0.12075
C16	H11	0.09742
C16	C18	0.12102
C17	C19	0.12512
C17	Sfg3	0.14529
C18	H12	0.08736
C18	C20	0.12540
C19	C23	0.12664
C20	C24	0.12739
C21	O15	0.10305
C23	O13	0.10254
Ni3	O10	0.16599
Ni3	O12	0.16318
Ni3	O14	0.18273
Ni3	O16	0.18366
Ni3	N5	0.17612
Ni3	N7	0.17584
Ni4	O11	0.16282
Ni4	O13	0.18195
Ni4	N8	0.17757
O9	C47	0.11388
O10	C48	0.11378
O11	C45	0.11586
O12	C46	0.11585
O14	C48	0.10252
O16	C46	0.10301
N5	C35	0.12347
N5	C37	0.10899
N6	C36	0.12355
N6	C38	0.10891
N7	C33	0.12117
N7	C39	0.10822
N8	C34	0.12114
N8	C40	0.10817
C25	C27	0.11328
C25	C35	0.12097
C25	Sfg5	0.16404
C26	C28	0.11325
C26	C36	0.12119
C26	Sfg6	0.16390
C27	C29	0.12757
C27	C45	0.12596
C28	C30	0.12764
C28	C46	0.12621
C29	C37	0.12008
C30	H15	0.08814
C30	C38	0.12032
C31	H16	0.09658
C31	C33	0.12152
C31	C43	0.11239
C32	C34	0.12175
C32	C44	0.11233
C33	H17	0.08706
C35	H19	0.08757
C37	H21	0.09912
C38	H22	0.09914
C39	H23	0.09732
C39	C41	0.12075
C40	H24	0.09742
C40	C42	0.12102
C41	C43	0.12512
C41	Sfg7	0.14529
C42	C44	0.12540
C42	Sfg8	0.14537
C43	C47	0.12664
C44	C48	0.12739
Sfg1	Cfg1	0.15499
Cfg1	Hfg1	0.09633
Cfg1	Hfg2	0.09922
Cfg1	Hfg3	0.09162
Hfg1	Hfg2	0.16533
Hfg1	Hfg3	0.15561
Hfg2	Hfg3	0.14834
Sfg2	Cfg2	0.15851
Cfg2	Hfg4	0.09188
Cfg2	Hfg5	0.10004
Cfg2	Hfg6	0.09381
Hfg4	Hfg5	0.14513
Hfg4	Hfg6	0.15340
Hfg5	Hfg6	0.16569
Sfg3	Cfg3	0.15819
Cfg3	Hfg7	0.08865
Cfg3	Hfg8	0.09091
Cfg3	Hfg9	0.10581
Hfg7	Hfg8	0.14488
Hfg7	Hfg9	0.15432
Hfg8	Hfg9	0.16616
Sfg4	Cfg4	0.15721
Cfg4	Hfg10	0.09452
Cfg4	Hfg11	0.10062
Cfg4	Hfg12	0.09071
Hfg10	Hfg11	0.16441
Hfg10	Hfg12	0.15237
Hfg11	Hfg12	0.14951
Sfg5	Cfg5	0.15499
Cfg5	Hfg13	0.09633
Cfg5	Hfg14	0.09922
Cfg5	Hfg15	0.09162
Hfg13	Hfg14	0.16533
Hfg13	Hfg15	0.15561
Hfg14	Hfg15	0.14834
Sfg6	Cfg6	0.15838
Cfg6	Hfg16	0.10466
Cfg6	Hfg17	0.09075
Cfg6	Hfg18	0.08891
Hfg16	Hfg17	0.16190
Hfg16	Hfg18	0.15165
Hfg17	Hfg18	0.14896
Sfg7	Cfg7	0.15819
Cfg7	Hfg19	0.08865
Cfg7	Hfg20	0.09091
Cfg7	Hfg21	0.10581
Hfg19	Hfg20	0.14488
Hfg19	Hfg21	0.15432
Hfg20	Hfg21	0.16616
Sfg8	Cfg8	0.15787
Cfg8	Hfg22	0.08865
Cfg8	Hfg23	0.09100
Cfg8	Hfg24	0.10592
Hfg22	Hfg23	0.14490
Hfg22	Hfg24	0.15451
Hfg23	Hfg24	0.16643
