data_NiPyC2_relax_sc211_NiPyC2_relax_sc211_aligned_C-3CH3_NiPyC2_relax_sc211_aligned_C-3CH3_NiPyC2_relax_sc211_aligned_C-3CH3_NiPyC2_relax_sc211_aligned_C-3CH3_NiPyC2_relax_sc211_aligned_C-3CH3_NiPyC2_relax_sc211_aligned_C-3CH3_NiPyC2_relax_sc211_aligned_C-3CH3_NiPyC2_relax_sc211_aligned_C-3CH3_PM
_symmetry_space_group_name_H-M	'P1'
_cell_length_a	12.505600
_cell_length_b	12.523400
_cell_length_c	10.276800
_cell_angle_alpha	90.000000
_cell_angle_beta	91.269000
_cell_angle_gamma	90.000000
_symmetry_Int_Tables_number 1

loop_
_symmetry_equiv_pos_as_xyz
'x,y,z'

loop_
_atom_site_label
_atom_site_type_symbol
_atom_site_fract_x
_atom_site_fract_y
_atom_site_fract_z
Ni1	Ni	0.247002	0.751486	0.836326
Ni2	Ni	0.499972	0.247999	0.339178
O1	O	0.122778	0.347689	0.382873
O2	O	0.371208	0.650977	0.881292
O3	O	0.377630	0.147507	0.377178
O4	O	0.125098	0.852352	0.876261
O5	O	0.473069	0.356160	0.482994
O6	O	0.221137	0.641415	0.979877
O7	O	0.028840	0.135158	0.481078
O8	O	0.276686	0.862758	0.979399
N1	N	0.308437	0.851253	0.704828
N2	N	0.060729	0.148857	0.206052
N3	N	0.186542	0.650310	0.705838
N4	N	0.438810	0.350928	0.208041
C1	C	0.288212	0.970050	0.521984
C2	C	0.038379	0.031106	0.022308
H1	H	0.237124	0.999575	0.443113
H2	H	0.486538	0.002692	0.943499
C3	C	0.390634	0.011770	0.546492
C4	C	0.140244	0.987744	0.046146
C5	C	0.451915	0.970202	0.650371
C6	C	0.202520	0.028353	0.149893
H3	H	0.032063	0.998805	0.673520
C7	C	0.208181	0.529704	0.526384
C8	C	0.458545	0.471409	0.027904
H4	H	0.258700	0.500895	0.449282
C9	C	0.245137	0.613331	0.606435
C10	C	0.496819	0.388677	0.108617
H5	H	0.322641	0.650506	0.592635
H6	H	0.074968	0.352851	0.095028
C11	C	0.249476	0.889206	0.603203
C12	C	0.001069	0.112232	0.104247
H7	H	0.170154	0.855123	0.588560
H8	H	0.422322	0.147732	0.089886
C13	C	0.407977	0.889383	0.727552
C14	C	0.159935	0.109547	0.227812
H9	H	0.453370	0.855173	0.808761
H10	H	0.206239	0.143103	0.308797
C15	C	0.088862	0.608983	0.727352
C16	C	0.340890	0.391633	0.229394
H11	H	0.043729	0.642944	0.806608
H12	H	0.296378	0.357526	0.309051
C17	C	0.046925	0.525079	0.651312
C18	C	0.297658	0.474711	0.152754
H13	H	0.218952	0.505201	0.175264
C19	C	0.108164	0.484270	0.550116
C20	C	0.357832	0.515656	0.050638
C21	C	0.433310	0.099319	0.466621
C22	C	0.181517	0.899720	0.965672
C23	C	0.067378	0.394474	0.470676
C24	C	0.316043	0.604172	0.969107
Ni3	Ni	0.747002	0.751486	0.836326
Ni4	Ni	0.999972	0.247999	0.339178
O9	O	0.622779	0.347689	0.382873
O10	O	0.871208	0.650977	0.881292
O11	O	0.877630	0.147507	0.377178
O12	O	0.625098	0.852352	0.876261
O13	O	0.973069	0.356160	0.482994
O14	O	0.721137	0.641415	0.979877
O15	O	0.528840	0.135158	0.481078
O16	O	0.776686	0.862758	0.979399
N5	N	0.808437	0.851253	0.704828
N6	N	0.560729	0.148857	0.206052
N7	N	0.686543	0.650310	0.705838
N8	N	0.938810	0.350928	0.208041
C25	C	0.788212	0.970050	0.521984
C26	C	0.538379	0.031106	0.022308
H14	H	0.986538	0.002692	0.943499
C27	C	0.890634	0.011770	0.546492
C28	C	0.640244	0.987744	0.046146
C29	C	0.951915	0.970202	0.650371
C30	C	0.702520	0.028353	0.149893
C31	C	0.708182	0.529704	0.526384
C32	C	0.958546	0.471409	0.027904
H15	H	0.758700	0.500895	0.449282
C33	C	0.745137	0.613331	0.606435
C34	C	0.996819	0.388677	0.108617
H16	H	0.822641	0.650506	0.592635
H17	H	0.574968	0.352851	0.095028
C35	C	0.749476	0.889206	0.603203
C36	C	0.501069	0.112232	0.104247
H18	H	0.670154	0.855123	0.588560
H19	H	0.922322	0.147732	0.089886
C37	C	0.907977	0.889383	0.727552
C38	C	0.659934	0.109547	0.227812
H20	H	0.953370	0.855173	0.808761
H21	H	0.706240	0.143103	0.308797
C39	C	0.588862	0.608983	0.727352
C40	C	0.840890	0.391633	0.229394
H22	H	0.543729	0.642944	0.806608
H23	H	0.796378	0.357526	0.309051
C41	C	0.546925	0.525079	0.651312
C42	C	0.797658	0.474711	0.152754
H24	H	0.718952	0.505201	0.175264
C43	C	0.608164	0.484270	0.550116
C44	C	0.857832	0.515656	0.050638
C45	C	0.933310	0.099319	0.466621
C46	C	0.681517	0.899720	0.965672
C47	C	0.567377	0.394474	0.470676
C48	C	0.816043	0.604172	0.969107
Cfg1	Cfg	0.570577	0.007794	0.689631
Cfg2	Cfg	0.620064	0.947866	0.809667
Hfg1	Hfg	0.626702	0.860642	0.791208
Hfg2	Hfg	0.702380	0.976966	0.832759
Hfg3	Hfg	0.572494	0.960976	0.898417
Cfg3	Cfg	0.570639	0.126739	0.731881
Hfg4	Hfg	0.520633	0.136519	0.819203
Hfg5	Hfg	0.653115	0.153506	0.758014
Hfg6	Hfg	0.538463	0.184381	0.661297
Cfg4	Cfg	0.648386	0.982833	0.578111
Hfg7	Hfg	0.651022	0.895175	0.561319
Hfg8	Hfg	0.628734	0.017292	0.482757
Hfg9	Hfg	0.730756	0.009797	0.604455
Cfg5	Cfg	0.320873	0.989227	0.188173
Cfg6	Cfg	0.371635	0.048230	0.308134
Hfg10	Hfg	0.379249	0.135416	0.289998
Hfg11	Hfg	0.453685	0.018077	0.330538
Hfg12	Hfg	0.324325	0.035455	0.397166
Cfg7	Cfg	0.319681	0.870176	0.229921
Hfg13	Hfg	0.269970	0.860764	0.317555
Hfg14	Hfg	0.401935	0.842347	0.255374
Hfg15	Hfg	0.286484	0.813117	0.159307
Cfg8	Cfg	0.398454	0.013549	0.076211
Hfg16	Hfg	0.402080	0.101213	0.059772
Hfg17	Hfg	0.377947	0.979586	0.980836
Hfg18	Hfg	0.480600	0.985523	0.101875
Cfg9	Cfg	0.930674	0.483229	0.688371
Cfg10	Cfg	0.880821	0.543176	0.805489
Hfg19	Hfg	0.870180	0.629690	0.784515
Hfg20	Hfg	0.800195	0.511063	0.827181
Hfg21	Hfg	0.930489	0.533683	0.895852
Cfg11	Cfg	0.936379	0.365175	0.733810
Hfg22	Hfg	0.988315	0.359086	0.822719
Hfg23	Hfg	0.855548	0.335442	0.758475
Hfg24	Hfg	0.969712	0.307677	0.665624
Cfg12	Cfg	0.849882	0.502877	0.574120
Hfg25	Hfg	0.843252	0.590023	0.554908
Hfg26	Hfg	0.869282	0.467561	0.480210
Hfg27	Hfg	0.769170	0.472954	0.599004
Cfg13	Cfg	0.536115	0.508263	0.914240
Cfg14	Cfg	0.643767	0.445459	0.910952
Hfg28	Hfg	0.691504	0.456296	0.002589
Hfg29	Hfg	0.694486	0.474092	0.830482
Hfg30	Hfg	0.630249	0.358743	0.894065
Cfg15	Cfg	0.483063	0.486188	0.778998
Hfg31	Hfg	0.469189	0.398990	0.767257
Hfg32	Hfg	0.536174	0.512605	0.699855
Hfg33	Hfg	0.404996	0.522967	0.759639
Cfg16	Cfg	0.570917	0.626107	0.934654
Hfg34	Hfg	0.616529	0.633646	0.028305
Hfg35	Hfg	0.507003	0.685425	0.940370
Hfg36	Hfg	0.623907	0.652333	0.855297
Cfg17	Cfg	0.709316	0.007758	0.405972
Cfg18	Cfg	0.599915	0.947845	0.401151
Hfg37	Hfg	0.610740	0.860626	0.385938
Hfg38	Hfg	0.548292	0.976985	0.319033
Hfg39	Hfg	0.554391	0.960925	0.491516
Cfg19	Cfg	0.678119	0.126700	0.423723
Hfg40	Hfg	0.634673	0.136448	0.516203
Hfg41	Hfg	0.624185	0.153506	0.342702
Hfg42	Hfg	0.743744	0.184331	0.430003
Cfg20	Cfg	0.758941	0.982844	0.272298
Hfg43	Hfg	0.770217	0.895189	0.262250
Hfg44	Hfg	0.837586	0.017302	0.254185
Hfg45	Hfg	0.704896	0.009848	0.191484
Cfg21	Cfg	0.820873	0.989228	0.188173
Cfg22	Cfg	0.871634	0.048231	0.308135
Hfg46	Hfg	0.879248	0.135417	0.289999
Hfg47	Hfg	0.953685	0.018079	0.330539
Hfg48	Hfg	0.824324	0.035455	0.397166
Cfg23	Cfg	0.819682	0.870177	0.229921
Hfg49	Hfg	0.769971	0.860765	0.317555
Hfg50	Hfg	0.901935	0.842348	0.255375
Hfg51	Hfg	0.786485	0.813118	0.159307
Cfg24	Cfg	0.898454	0.013550	0.076212
Hfg52	Hfg	0.902080	0.101215	0.059772
Hfg53	Hfg	0.877947	0.979587	0.980836
Hfg54	Hfg	0.980600	0.985525	0.101876
Cfg25	Cfg	0.430673	0.483230	0.688370
Cfg26	Cfg	0.380816	0.543183	0.805480
Hfg55	Hfg	0.430481	0.533694	0.895848
Hfg56	Hfg	0.300189	0.511072	0.827170
Hfg57	Hfg	0.370178	0.629696	0.784499
Cfg27	Cfg	0.349884	0.502873	0.574114
Hfg58	Hfg	0.343255	0.590018	0.554893
Hfg59	Hfg	0.269171	0.472952	0.598997
Hfg60	Hfg	0.369287	0.467551	0.480208
Cfg28	Cfg	0.436377	0.365179	0.733817
Hfg61	Hfg	0.488310	0.359094	0.822729
Hfg62	Hfg	0.469713	0.307676	0.665637
Hfg63	Hfg	0.355545	0.335447	0.758480
Cfg29	Cfg	0.036116	0.508264	0.914241
Cfg30	Cfg	0.143768	0.445460	0.910953
Hfg64	Hfg	0.191505	0.456297	0.002591
Hfg65	Hfg	0.194488	0.474093	0.830484
Hfg66	Hfg	0.130250	0.358744	0.894066
Cfg31	Cfg	0.983065	0.486189	0.778999
Hfg67	Hfg	0.969191	0.398991	0.767257
Hfg68	Hfg	0.036176	0.512607	0.699856
Hfg69	Hfg	0.904997	0.522968	0.759639
Cfg32	Cfg	0.070918	0.626108	0.934656
Hfg70	Hfg	0.116530	0.633646	0.028307
Hfg71	Hfg	0.007003	0.685426	0.940372
Hfg72	Hfg	0.123909	0.652334	0.855299

loop_
_geom_bond_atom_site_label_1
_geom_bond_atom_site_label_2
_geom_bond_distance
Ni1	O2	0.16599
Ni1	O4	0.16318
Ni1	O6	0.18273
Ni1	O8	0.18366
Ni1	N1	0.17612
Ni1	N3	0.17584
Ni2	O3	0.16282
Ni2	O5	0.18195
Ni2	N4	0.17757
Ni2	O9	0.16410
Ni2	O15	0.18358
Ni2	N6	0.17676
O1	C23	0.11387
O1	Ni4	0.16410
O2	C24	0.11378
O3	C21	0.11586
O4	C22	0.11585
O5	C47	0.10254
O6	C24	0.10252
O7	Ni4	0.18358
O7	C45	0.10305
O8	C22	0.10301
N1	C11	0.12347
N1	C13	0.10899
N2	C12	0.12355
N2	C14	0.10891
N2	Ni4	0.17676
N3	C9	0.12117
N3	C15	0.10822
N4	C10	0.12114
N4	C16	0.10817
C1	H1	0.09850
C1	C3	0.11328
C1	C11	0.12097
C2	C4	0.11325
C2	C12	0.12119
C2	H14	0.09852
H2	C26	0.09852
C3	C5	0.12757
C3	C21	0.12596
C4	C6	0.12764
C4	C22	0.12621
C5	C13	0.12008
C5	Cfg1	0.13052
C6	C14	0.12032
C6	Cfg5	0.13040
H3	C29	0.08819
C7	H4	0.09658
C7	C9	0.12152
C7	C19	0.11239
C8	C10	0.12175
C8	C20	0.11233
C8	Cfg13	0.14246
C9	H5	0.08706
C10	H17	0.08704
H6	C34	0.08704
C11	H7	0.08757
C12	H19	0.08756
H8	C36	0.08756
C13	H9	0.09912
C14	H10	0.09914
C15	H11	0.09732
C15	C17	0.12075
C16	H12	0.09742
C16	C18	0.12102
C17	C19	0.12512
C17	Cfg9	0.12899
C18	H13	0.08736
C18	C20	0.12540
C19	C23	0.12664
C20	C24	0.12739
C21	O15	0.10305
C23	O13	0.10254
Ni3	O10	0.16599
Ni3	O12	0.16318
Ni3	O14	0.18273
Ni3	O16	0.18366
Ni3	N5	0.17612
Ni3	N7	0.17584
Ni4	O11	0.16282
Ni4	O13	0.18195
Ni4	N8	0.17757
O9	C47	0.11388
O10	C48	0.11378
O11	C45	0.11586
O12	C46	0.11585
O14	C48	0.10252
O16	C46	0.10301
N5	C35	0.12347
N5	C37	0.10899
N6	C36	0.12355
N6	C38	0.10891
N7	C33	0.12117
N7	C39	0.10822
N8	C34	0.12114
N8	C40	0.10817
C25	C27	0.11328
C25	C35	0.12097
C25	Cfg17	0.14528
C26	C28	0.11325
C26	C36	0.12119
C27	C29	0.12757
C27	C45	0.12596
C28	C30	0.12764
C28	C46	0.12621
C29	C37	0.12008
C30	C38	0.12032
C30	Cfg21	0.13040
C31	H15	0.09658
C31	C33	0.12152
C31	C43	0.11239
C32	C34	0.12175
C32	C44	0.11233
C33	H16	0.08706
C35	H18	0.08757
C37	H20	0.09912
C38	H21	0.09914
C39	H22	0.09732
C39	C41	0.12075
C40	H23	0.09742
C40	C42	0.12102
C41	C43	0.12512
C41	Cfg25	0.12899
C42	H24	0.08736
C42	C44	0.12540
C43	C47	0.12664
C44	C48	0.12739
Cfg1	Cfg2	0.14300
Cfg1	Cfg3	0.12623
Cfg1	Cfg4	0.13825
Cfg2	Hfg1	0.08940
Cfg2	Hfg2	0.09031
Cfg2	Hfg3	0.10155
Hfg1	Hfg2	0.14486
Hfg1	Hfg3	0.15652
Hfg2	Hfg3	0.14641
Cfg3	Hfg4	0.10110
Cfg3	Hfg5	0.09056
Cfg3	Hfg6	0.09664
Hfg4	Hfg5	0.14692
Hfg4	Hfg6	0.16596
Hfg5	Hfg6	0.15314
Cfg4	Hfg7	0.08929
Cfg4	Hfg8	0.10328
Cfg4	Hfg9	0.09059
Hfg7	Hfg8	0.14691
Hfg7	Hfg9	0.14614
Hfg8	Hfg9	0.15898
Cfg5	Cfg6	0.14300
Cfg5	Cfg7	0.12616
Cfg5	Cfg8	0.13837
Cfg6	Hfg10	0.08938
Cfg6	Hfg11	0.09024
Cfg6	Hfg12	0.10163
Hfg10	Hfg11	0.14475
Hfg10	Hfg12	0.15650
Hfg11	Hfg12	0.14654
Cfg7	Hfg13	0.10119
Cfg7	Hfg14	0.09049
Cfg7	Hfg15	0.09667
Hfg13	Hfg14	0.14704
Hfg13	Hfg15	0.16609
Hfg14	Hfg15	0.15301
Cfg8	Hfg16	0.08927
Cfg8	Hfg17	0.10330
Cfg8	Hfg18	0.09051
Hfg16	Hfg17	0.14699
Hfg16	Hfg18	0.14602
Hfg17	Hfg18	0.15882
Cfg9	Cfg10	0.14070
Cfg9	Cfg11	0.12662
Cfg9	Cfg12	0.14130
Cfg10	Hfg19	0.08965
Cfg10	Hfg20	0.08946
Cfg10	Hfg21	0.10355
Hfg19	Hfg20	0.14419
Hfg19	Hfg21	0.15890
Hfg20	Hfg21	0.14901
Cfg11	Hfg22	0.10315
Cfg11	Hfg23	0.08959
Cfg11	Hfg24	0.09522
Hfg22	Hfg23	0.14938
Hfg22	Hfg24	0.16634
Hfg23	Hfg24	0.14975
Cfg12	Hfg25	0.08949
Cfg12	Hfg26	0.10219
Cfg12	Hfg27	0.08960
Hfg25	Hfg26	0.14579
Hfg25	Hfg27	0.14539
Hfg26	Hfg27	0.15545
Cfg13	Cfg14	0.12468
Cfg13	Cfg15	0.14694
Cfg13	Cfg16	0.12456
Cfg14	Hfg28	0.10389
Cfg14	Hfg29	0.09934
Cfg14	Hfg30	0.08937
Hfg28	Hfg29	0.17305
Hfg28	Hfg30	0.15826
Hfg29	Hfg30	0.14654
Cfg15	Hfg31	0.08907
Cfg15	Hfg32	0.09891
Cfg15	Hfg33	0.08844
Hfg31	Hfg32	0.14812
Hfg31	Hfg33	0.13982
Hfg32	Hfg33	0.14453
Cfg16	Hfg34	0.10444
Cfg16	Hfg35	0.08739
Cfg16	Hfg36	0.09896
Hfg34	Hfg35	0.14970
Hfg34	Hfg36	0.17417
Hfg35	Hfg36	0.14832
Cfg17	Cfg18	0.12482
Cfg17	Cfg19	0.12424
Cfg17	Cfg20	0.14475
Cfg18	Hfg37	0.08920
Cfg18	Hfg38	0.10128
Cfg18	Hfg39	0.10203
Hfg37	Hfg38	0.14804
Hfg37	Hfg39	0.15615
Hfg38	Hfg39	0.17334
Cfg19	Hfg40	0.10264
Cfg19	Hfg41	0.10096
Cfg19	Hfg42	0.08756
Hfg40	Hfg41	0.17465
Hfg40	Hfg42	0.14704
Hfg41	Hfg42	0.15122
Cfg20	Hfg43	0.08895
Cfg20	Hfg44	0.08775
Cfg20	Hfg45	0.10090
Hfg43	Hfg44	0.13970
Hfg43	Hfg45	0.14974
Hfg44	Hfg45	0.14695
Cfg21	Cfg22	0.14300
Cfg21	Cfg23	0.12616
Cfg21	Cfg24	0.13837
Cfg22	Hfg46	0.08938
Cfg22	Hfg47	0.09024
Cfg22	Hfg48	0.10163
Hfg46	Hfg47	0.14475
Hfg46	Hfg48	0.15650
Hfg47	Hfg48	0.14654
Cfg23	Hfg49	0.10119
Cfg23	Hfg50	0.09049
Cfg23	Hfg51	0.09667
Hfg49	Hfg50	0.14704
Hfg49	Hfg51	0.16609
Hfg50	Hfg51	0.15301
Cfg24	Hfg52	0.08927
Cfg24	Hfg53	0.10330
Cfg24	Hfg54	0.09051
Hfg52	Hfg53	0.14699
Hfg52	Hfg54	0.14602
Hfg53	Hfg54	0.15882
Cfg25	Cfg26	0.14069
Cfg25	Cfg27	0.14131
Cfg26	Hfg55	0.10355
Cfg26	Hfg56	0.08946
Cfg26	Hfg57	0.08965
Hfg55	Hfg56	0.14901
Hfg55	Hfg57	0.15891
Hfg56	Hfg57	0.14419
Cfg27	Hfg58	0.08949
Cfg27	Hfg59	0.08960
Cfg27	Hfg60	0.10219
Hfg58	Hfg59	0.14539
Hfg58	Hfg60	0.14579
Hfg59	Hfg60	0.15544
