data_NiPyC2_relax_sc211_NiPyC2_relax_sc211_aligned_CH2-CH2-CH3_NiPyC2_relax_sc211_aligned_CH2-CH2-CH3_NiPyC2_relax_sc211_aligned_CH2-CH2-CH3_NiPyC2_relax_sc211_aligned_CH2-CH2-CH3_NiPyC2_relax_sc211_aligned_CH2-CH2-CH3_NiPyC2_relax_sc211_aligned_CH2-CH2-CH3_NiPyC2_relax_sc211_aligned_CH2-CH2-CH3_NiPyC2_relax_sc211_aligned_CH2-CH2-CH3_PM
_symmetry_space_group_name_H-M	'P1'
_cell_length_a	12.505600
_cell_length_b	12.523400
_cell_length_c	10.276800
_cell_angle_alpha	90.000000
_cell_angle_beta	91.269000
_cell_angle_gamma	90.000000
_symmetry_Int_Tables_number 1

loop_
_symmetry_equiv_pos_as_xyz
'x,y,z'

loop_
_atom_site_label
_atom_site_type_symbol
_atom_site_fract_x
_atom_site_fract_y
_atom_site_fract_z
Ni1	Ni	0.247002	0.751486	0.836326
Ni2	Ni	0.499972	0.247999	0.339178
O1	O	0.122778	0.347689	0.382873
O2	O	0.371208	0.650977	0.881292
O3	O	0.377630	0.147507	0.377178
O4	O	0.125098	0.852352	0.876261
O5	O	0.473069	0.356160	0.482994
O6	O	0.221137	0.641415	0.979877
O7	O	0.028840	0.135158	0.481078
O8	O	0.276686	0.862758	0.979399
N1	N	0.308437	0.851253	0.704828
N2	N	0.060729	0.148857	0.206052
N3	N	0.186542	0.650310	0.705838
N4	N	0.438810	0.350928	0.208041
C1	C	0.288212	0.970050	0.521984
C2	C	0.038379	0.031106	0.022308
H1	H	0.237124	0.999575	0.443113
C3	C	0.390634	0.011770	0.546492
C4	C	0.140244	0.987744	0.046146
C5	C	0.451915	0.970202	0.650371
C6	C	0.202520	0.028353	0.149893
H2	H	0.032063	0.998805	0.673520
H3	H	0.282340	0.998665	0.172602
C7	C	0.208181	0.529704	0.526384
C8	C	0.458545	0.471409	0.027904
H4	H	0.258700	0.500895	0.449282
H5	H	0.008641	0.500397	0.950548
C9	C	0.245137	0.613331	0.606435
C10	C	0.496819	0.388677	0.108617
H6	H	0.322641	0.650506	0.592635
H7	H	0.074968	0.352851	0.095028
C11	C	0.249476	0.889206	0.603203
C12	C	0.001069	0.112232	0.104247
H8	H	0.170154	0.855123	0.588560
H9	H	0.422322	0.147732	0.089886
C13	C	0.407977	0.889383	0.727552
C14	C	0.159935	0.109547	0.227812
H10	H	0.453370	0.855173	0.808761
H11	H	0.206239	0.143103	0.308797
C15	C	0.088862	0.608983	0.727352
C16	C	0.340890	0.391633	0.229394
H12	H	0.043729	0.642944	0.806608
H13	H	0.296378	0.357526	0.309051
C17	C	0.046925	0.525079	0.651312
C18	C	0.297658	0.474711	0.152754
H14	H	0.468672	0.493231	0.673502
C19	C	0.108164	0.484270	0.550116
C20	C	0.357832	0.515656	0.050638
C21	C	0.433310	0.099319	0.466621
C22	C	0.181517	0.899720	0.965672
C23	C	0.067378	0.394474	0.470676
C24	C	0.316043	0.604172	0.969107
Ni3	Ni	0.747002	0.751486	0.836326
Ni4	Ni	0.999972	0.247999	0.339178
O9	O	0.622779	0.347689	0.382873
O10	O	0.871208	0.650977	0.881292
O11	O	0.877630	0.147507	0.377178
O12	O	0.625098	0.852352	0.876261
O13	O	0.973069	0.356160	0.482994
O14	O	0.721137	0.641415	0.979877
O15	O	0.528840	0.135158	0.481078
O16	O	0.776686	0.862758	0.979399
N5	N	0.808437	0.851253	0.704828
N6	N	0.560729	0.148857	0.206052
N7	N	0.686543	0.650310	0.705838
N8	N	0.938810	0.350928	0.208041
C25	C	0.788212	0.970050	0.521984
C26	C	0.538379	0.031106	0.022308
C27	C	0.890634	0.011770	0.546492
C28	C	0.640244	0.987744	0.046146
C29	C	0.951915	0.970202	0.650371
C30	C	0.702520	0.028353	0.149893
H15	H	0.782340	0.998665	0.172602
C31	C	0.708182	0.529704	0.526384
C32	C	0.958546	0.471409	0.027904
H16	H	0.508641	0.500397	0.950548
C33	C	0.745137	0.613331	0.606435
C34	C	0.996819	0.388677	0.108617
H17	H	0.822641	0.650506	0.592635
H18	H	0.574968	0.352851	0.095028
C35	C	0.749476	0.889206	0.603203
C36	C	0.501069	0.112232	0.104247
H19	H	0.670154	0.855123	0.588560
H20	H	0.922322	0.147732	0.089886
C37	C	0.907977	0.889383	0.727552
C38	C	0.659934	0.109547	0.227812
H21	H	0.953370	0.855173	0.808761
H22	H	0.706240	0.143103	0.308797
C39	C	0.588862	0.608983	0.727352
C40	C	0.840890	0.391633	0.229394
H23	H	0.543729	0.642944	0.806608
H24	H	0.796378	0.357526	0.309051
C41	C	0.546925	0.525079	0.651312
C42	C	0.797658	0.474711	0.152754
C43	C	0.608164	0.484270	0.550116
C44	C	0.857832	0.515656	0.050638
C45	C	0.933310	0.099319	0.466621
C46	C	0.681517	0.899720	0.965672
C47	C	0.567377	0.394474	0.470676
C48	C	0.816043	0.604172	0.969107
Cfg1	Cfg	0.565717	0.011535	0.680784
Cfg2	Cfg	0.625765	0.960199	0.797117
Hfg1	Hfg	0.560260	0.098591	0.700748
Hfg2	Hfg	0.614606	0.998000	0.593257
Cfg3	Cfg	0.737090	0.008585	0.815967
Hfg3	Hfg	0.634822	0.873013	0.780177
Hfg4	Hfg	0.580508	0.973541	0.887598
Hfg5	Hfg	0.785351	0.995448	0.727927
Hfg6	Hfg	0.778512	0.970130	0.900388
Hfg7	Hfg	0.731197	0.095678	0.835030
Cfg4	Cfg	0.967138	0.991198	0.908029
Cfg5	Cfg	0.856790	0.044251	0.890649
Hfg8	Hfg	0.011160	0.004412	0.816612
Hfg9	Hfg	0.953425	0.904285	0.922049
Cfg6	Cfg	0.795083	0.997204	0.774320
Hfg10	Hfg	0.809055	0.031296	0.979269
Hfg11	Hfg	0.866756	0.131360	0.873900
Hfg12	Hfg	0.782214	0.910240	0.788443
Hfg13	Hfg	0.715934	0.036883	0.764113
Hfg14	Hfg	0.839745	0.010007	0.683386
Cfg7	Cfg	0.935531	0.479536	0.679754
Cfg8	Cfg	0.875421	0.530390	0.793119
Hfg15	Hfg	0.945011	0.393166	0.702196
Hfg16	Hfg	0.884549	0.489420	0.590568
Cfg9	Cfg	0.766543	0.477716	0.810316
Hfg17	Hfg	0.862391	0.616792	0.773601
Hfg18	Hfg	0.922817	0.520599	0.885157
Hfg19	Hfg	0.716197	0.487220	0.720645
Hfg20	Hfg	0.725024	0.515910	0.892609
Hfg21	Hfg	0.776444	0.391311	0.831871
Cfg10	Cfg	0.185893	0.519176	0.181719
Cfg11	Cfg	0.126977	0.468333	0.296034
Hfg22	Hfg	0.134558	0.508199	0.093022
Hfg23	Hfg	0.194515	0.605776	0.203307
Cfg12	Cfg	0.017619	0.519899	0.313628
Hfg24	Hfg	0.174741	0.479194	0.387615
Hfg25	Hfg	0.114824	0.381679	0.277397
Hfg26	Hfg	0.026655	0.606534	0.334328
Hfg27	Hfg	0.976980	0.481736	0.396604
Hfg28	Hfg	0.966915	0.509309	0.224436
Cfg13	Cfg	0.717888	0.011498	0.407679
Cfg14	Cfg	0.606786	0.960183	0.389525
Hfg29	Hfg	0.705457	0.098550	0.422207
Hfg30	Hfg	0.761956	0.997995	0.316357
Cfg15	Cfg	0.546111	0.008624	0.273271
Hfg31	Hfg	0.615473	0.873004	0.372251
Hfg32	Hfg	0.559012	0.973495	0.478035
Hfg33	Hfg	0.590821	0.995518	0.182435
Hfg34	Hfg	0.466390	0.970184	0.262499
Hfg35	Hfg	0.534528	0.095714	0.287906
Cfg16	Cfg	0.467138	0.991198	0.908029
Cfg17	Cfg	0.356790	0.044251	0.890649
Hfg36	Hfg	0.511160	0.004412	0.816612
Hfg37	Hfg	0.453425	0.904285	0.922049
Cfg18	Cfg	0.295083	0.997204	0.774320
Hfg38	Hfg	0.309055	0.031296	0.979269
Hfg39	Hfg	0.366756	0.131360	0.873900
Hfg40	Hfg	0.282214	0.910240	0.788443
Hfg41	Hfg	0.215934	0.036883	0.764113
Hfg42	Hfg	0.339745	0.010007	0.683386
Cfg19	Cfg	0.777524	0.489375	0.414480
Cfg20	Cfg	0.885972	0.544995	0.397189
Hfg43	Hfg	0.730823	0.499511	0.321994
Hfg44	Hfg	0.793951	0.403177	0.431350
Cfg21	Cfg	0.945985	0.497233	0.283252
Hfg45	Hfg	0.936306	0.535161	0.486928
Hfg46	Hfg	0.873217	0.631433	0.377642
Hfg47	Hfg	0.961572	0.410964	0.300214
Hfg48	Hfg	0.023784	0.538799	0.273059
Hfg49	Hfg	0.898668	0.506951	0.191251
Cfg22	Cfg	0.685893	0.519176	0.181719
Cfg23	Cfg	0.626977	0.468333	0.296034
Hfg50	Hfg	0.634558	0.508199	0.093022
Hfg51	Hfg	0.694515	0.605776	0.203307
Cfg24	Cfg	0.517619	0.519899	0.313628
Hfg52	Hfg	0.674741	0.479194	0.387615
Hfg53	Hfg	0.614824	0.381679	0.277397
Hfg54	Hfg	0.526655	0.606534	0.334328
Hfg55	Hfg	0.476980	0.481736	0.396604
Hfg56	Hfg	0.466915	0.509309	0.224436

loop_
_geom_bond_atom_site_label_1
_geom_bond_atom_site_label_2
_geom_bond_distance
Ni1	O2	0.16599
Ni1	O4	0.16318
Ni1	O6	0.18273
Ni1	O8	0.18366
Ni1	N1	0.17612
Ni1	N3	0.17584
Ni2	O3	0.16282
Ni2	O5	0.18195
Ni2	N4	0.17757
Ni2	O9	0.16410
Ni2	O15	0.18358
Ni2	N6	0.17676
O1	C23	0.11387
O1	Ni4	0.16410
O2	C24	0.11378
O3	C21	0.11586
O4	C22	0.11585
O5	C47	0.10254
O6	C24	0.10252
O7	Ni4	0.18358
O7	C45	0.10305
O8	C22	0.10301
N1	C11	0.12347
N1	C13	0.10899
N2	C12	0.12355
N2	C14	0.10891
N2	Ni4	0.17676
N3	C9	0.12117
N3	C15	0.10822
N4	C10	0.12114
N4	C16	0.10817
C1	H1	0.09850
C1	C3	0.11328
C1	C11	0.12097
C2	C4	0.11325
C2	C12	0.12119
C2	Cfg4	0.14045
C3	C5	0.12757
C3	C21	0.12596
C4	C6	0.12764
C4	C22	0.12621
C5	C13	0.12008
C5	Cfg1	0.12484
C6	H3	0.08814
C6	C14	0.12032
H2	C29	0.08819
C7	H4	0.09658
C7	C9	0.12152
C7	C19	0.11239
C8	C10	0.12175
C8	C20	0.11233
C8	H16	0.09661
H5	C32	0.09661
C9	H6	0.08706
C10	H18	0.08704
H7	C34	0.08704
C11	H8	0.08757
C12	H20	0.08756
H9	C36	0.08756
C13	H10	0.09912
C14	H11	0.09914
C15	H12	0.09732
C15	C17	0.12075
C16	H13	0.09742
C16	C18	0.12102
C17	C19	0.12512
C17	Cfg7	0.12366
C18	C20	0.12540
C18	Cfg10	0.12372
H14	C41	0.08735
C19	C23	0.12664
C20	C24	0.12739
C21	O15	0.10305
C23	O13	0.10254
Ni3	O10	0.16599
Ni3	O12	0.16318
Ni3	O14	0.18273
Ni3	O16	0.18366
Ni3	N5	0.17612
Ni3	N7	0.17584
Ni4	O11	0.16282
Ni4	O13	0.18195
Ni4	N8	0.17757
O9	C47	0.11388
O10	C48	0.11378
O11	C45	0.11586
O12	C46	0.11585
O14	C48	0.10252
O16	C46	0.10301
N5	C35	0.12347
N5	C37	0.10899
N6	C36	0.12355
N6	C38	0.10891
N7	C33	0.12117
N7	C39	0.10822
N8	C34	0.12114
N8	C40	0.10817
C25	C27	0.11328
C25	C35	0.12097
C25	Cfg13	0.14046
C26	C28	0.11325
C26	C36	0.12119
C26	Cfg16	0.14045
C27	C29	0.12757
C27	C45	0.12596
C28	C30	0.12764
C28	C46	0.12621
C29	C37	0.12008
C30	H15	0.08814
C30	C38	0.12032
C31	C33	0.12152
C31	C43	0.11239
C31	Cfg19	0.13769
C32	C34	0.12175
C32	C44	0.11233
C33	H17	0.08706
C35	H19	0.08757
C37	H21	0.09912
C38	H22	0.09914
C39	H23	0.09732
C39	C41	0.12075
C40	H24	0.09742
C40	C42	0.12102
C41	C43	0.12512
C42	C44	0.12540
C42	Cfg22	0.12372
C43	C47	0.12664
C44	C48	0.12739
Cfg1	Cfg2	0.14062
Cfg1	Hfg1	0.08948
Cfg1	Hfg2	0.10116
Cfg2	Cfg3	0.12284
Cfg2	Hfg3	0.08928
Cfg2	Hfg4	0.10204
Hfg1	Hfg2	0.15693
Cfg3	Hfg5	0.10126
Cfg3	Hfg6	0.10159
Cfg3	Hfg7	0.08935
Hfg3	Hfg4	0.15683
Hfg5	Hfg6	0.17444
Hfg5	Hfg7	0.15636
Hfg6	Hfg7	0.14924
Cfg4	Cfg5	0.12367
Cfg4	Hfg8	0.10232
Cfg4	Hfg9	0.08910
Cfg5	Cfg6	0.13983
Cfg5	Hfg10	0.10149
Cfg5	Hfg11	0.08926
Hfg8	Hfg9	0.15645
Cfg6	Hfg12	0.08904
Cfg6	Hfg13	0.08912
Cfg6	Hfg14	0.10212
Hfg10	Hfg11	0.15635
Hfg12	Hfg13	0.14499
Hfg12	Hfg14	0.15589
Hfg13	Hfg14	0.15023
Cfg7	Cfg8	0.13802
Cfg7	Hfg15	0.08974
Cfg7	Hfg16	0.10320
Cfg8	Cfg9	0.12217
Cfg8	Hfg17	0.08953
Cfg8	Hfg18	0.10399
Hfg15	Hfg16	0.15932
Cfg9	Hfg19	0.10328
Cfg9	Hfg20	0.09977
Cfg9	Hfg21	0.08960
Hfg17	Hfg18	0.15921
Hfg19	Hfg20	0.17456
Hfg19	Hfg21	0.15874
Hfg20	Hfg21	0.14785
Cfg10	Cfg11	0.13829
Cfg10	Hfg22	0.10307
Cfg10	Hfg23	0.08967
Cfg11	Cfg12	0.12218
Cfg11	Hfg24	0.10386
Cfg11	Hfg25	0.08947
Hfg22	Hfg23	0.15899
Cfg12	Hfg26	0.08953
Cfg12	Hfg27	0.09996
Cfg12	Hfg28	0.10314
Hfg24	Hfg25	0.15889
Hfg26	Hfg27	0.14806
Hfg26	Hfg28	0.15842
Hfg27	Hfg28	0.17465
Cfg13	Cfg14	0.12372
Cfg13	Hfg29	0.08913
Cfg13	Hfg30	0.10229
Cfg14	Cfg15	0.13980
Cfg14	Hfg31	0.08930
Cfg14	Hfg32	0.10146
Hfg29	Hfg30	0.15655
Cfg15	Hfg33	0.10209
Cfg15	Hfg34	0.08916
Cfg15	Hfg35	0.08907
Hfg31	Hfg32	0.15645
Hfg33	Hfg34	0.15012
Hfg33	Hfg35	0.15599
Hfg34	Hfg35	0.14507
Cfg16	Cfg17	0.12367
Cfg16	Hfg36	0.10232
Cfg16	Hfg37	0.08910
Cfg17	Cfg18	0.13983
Cfg17	Hfg38	0.10149
Cfg17	Hfg39	0.08926
Hfg36	Hfg37	0.15645
Cfg18	Hfg40	0.08904
Cfg18	Hfg41	0.08912
Cfg18	Hfg42	0.10212
Hfg38	Hfg39	0.15635
Hfg40	Hfg41	0.14499
Hfg40	Hfg42	0.15589
Hfg41	Hfg42	0.15023
Cfg19	Cfg20	0.12310
Cfg19	Hfg43	0.10410
Cfg19	Hfg44	0.08936
Cfg20	Cfg21	0.13735
Cfg20	Hfg45	0.10336
Cfg20	Hfg46	0.08953
Hfg43	Hfg44	0.15882
Cfg21	Hfg47	0.08929
Cfg21	Hfg48	0.08879
Cfg21	Hfg49	0.10391
Hfg45	Hfg46	0.15872
Hfg47	Hfg48	0.14474
Hfg47	Hfg49	0.15825
Hfg48	Hfg49	0.15284
Cfg22	Cfg23	0.13829
Cfg22	Hfg50	0.10307
Cfg22	Hfg51	0.08967
Cfg23	Cfg24	0.12218
Cfg23	Hfg52	0.10386
Cfg23	Hfg53	0.08947
Hfg50	Hfg51	0.15899
Cfg24	Hfg54	0.08953
Cfg24	Hfg55	0.09996
Cfg24	Hfg56	0.10314
Hfg52	Hfg53	0.15889
Hfg54	Hfg55	0.14806
Hfg54	Hfg56	0.15842
Hfg55	Hfg56	0.17465
