data_NiPyC2_relax_sc211_NiPyC2_relax_sc211_aligned_CH-CH2_NiPyC2_relax_sc211_aligned_CH-CH2_NiPyC2_relax_sc211_aligned_CH-CH2_NiPyC2_relax_sc211_aligned_CH-CH2_NiPyC2_relax_sc211_aligned_CH-CH2_NiPyC2_relax_sc211_aligned_CH-CH2_NiPyC2_relax_sc211_aligned_CH-CH2_NiPyC2_relax_sc211_aligned_CH-CH2_PM
_symmetry_space_group_name_H-M	'P1'
_cell_length_a	12.505600
_cell_length_b	12.523400
_cell_length_c	10.276800
_cell_angle_alpha	90.000000
_cell_angle_beta	91.269000
_cell_angle_gamma	90.000000
_symmetry_Int_Tables_number 1

loop_
_symmetry_equiv_pos_as_xyz
'x,y,z'

loop_
_atom_site_label
_atom_site_type_symbol
_atom_site_fract_x
_atom_site_fract_y
_atom_site_fract_z
Ni1	Ni	0.247002	0.751486	0.836326
Ni2	Ni	0.499972	0.247999	0.339178
O1	O	0.122778	0.347689	0.382873
O2	O	0.371208	0.650977	0.881292
O3	O	0.377630	0.147507	0.377178
O4	O	0.125098	0.852352	0.876261
O5	O	0.473069	0.356160	0.482994
O6	O	0.221137	0.641415	0.979877
O7	O	0.028840	0.135158	0.481078
O8	O	0.276686	0.862758	0.979399
N1	N	0.308437	0.851253	0.704828
N2	N	0.060729	0.148857	0.206052
N3	N	0.186542	0.650310	0.705838
N4	N	0.438810	0.350928	0.208041
C1	C	0.288212	0.970050	0.521984
C2	C	0.038379	0.031106	0.022308
H1	H	0.237124	0.999575	0.443113
C3	C	0.390634	0.011770	0.546492
C4	C	0.140244	0.987744	0.046146
C5	C	0.451915	0.970202	0.650371
C6	C	0.202520	0.028353	0.149893
H2	H	0.032063	0.998805	0.673520
C7	C	0.208181	0.529704	0.526384
C8	C	0.458545	0.471409	0.027904
H3	H	0.258700	0.500895	0.449282
C9	C	0.245137	0.613331	0.606435
C10	C	0.496819	0.388677	0.108617
H4	H	0.322641	0.650506	0.592635
H5	H	0.074968	0.352851	0.095028
C11	C	0.249476	0.889206	0.603203
C12	C	0.001069	0.112232	0.104247
H6	H	0.170154	0.855123	0.588560
H7	H	0.422322	0.147732	0.089886
C13	C	0.407977	0.889383	0.727552
C14	C	0.159935	0.109547	0.227812
H8	H	0.453370	0.855173	0.808761
H9	H	0.206239	0.143103	0.308797
C15	C	0.088862	0.608983	0.727352
C16	C	0.340890	0.391633	0.229394
H10	H	0.043729	0.642944	0.806608
H11	H	0.296378	0.357526	0.309051
C17	C	0.046925	0.525079	0.651312
C18	C	0.297658	0.474711	0.152754
H12	H	0.218952	0.505201	0.175264
C19	C	0.108164	0.484270	0.550116
C20	C	0.357832	0.515656	0.050638
C21	C	0.433310	0.099319	0.466621
C22	C	0.181517	0.899720	0.965672
C23	C	0.067378	0.394474	0.470676
C24	C	0.316043	0.604172	0.969107
Ni3	Ni	0.747002	0.751486	0.836326
Ni4	Ni	0.999972	0.247999	0.339178
O9	O	0.622779	0.347689	0.382873
O10	O	0.871208	0.650977	0.881292
O11	O	0.877630	0.147507	0.377178
O12	O	0.625098	0.852352	0.876261
O13	O	0.973069	0.356160	0.482994
O14	O	0.721137	0.641415	0.979877
O15	O	0.528840	0.135158	0.481078
O16	O	0.776686	0.862758	0.979399
N5	N	0.808437	0.851253	0.704828
N6	N	0.560729	0.148857	0.206052
N7	N	0.686543	0.650310	0.705838
N8	N	0.938810	0.350928	0.208041
C25	C	0.788212	0.970050	0.521984
C26	C	0.538379	0.031106	0.022308
H13	H	0.986538	0.002692	0.943499
C27	C	0.890634	0.011770	0.546492
C28	C	0.640244	0.987744	0.046146
C29	C	0.951915	0.970202	0.650371
C30	C	0.702520	0.028353	0.149893
H14	H	0.782340	0.998665	0.172602
C31	C	0.708182	0.529704	0.526384
C32	C	0.958546	0.471409	0.027904
H15	H	0.758700	0.500895	0.449282
C33	C	0.745137	0.613331	0.606435
C34	C	0.996819	0.388677	0.108617
H16	H	0.822641	0.650506	0.592635
H17	H	0.574968	0.352851	0.095028
C35	C	0.749476	0.889206	0.603203
C36	C	0.501069	0.112232	0.104247
H18	H	0.670154	0.855123	0.588560
H19	H	0.922322	0.147732	0.089886
C37	C	0.907977	0.889383	0.727552
C38	C	0.659934	0.109547	0.227812
H20	H	0.953370	0.855173	0.808761
H21	H	0.706240	0.143103	0.308797
C39	C	0.588862	0.608983	0.727352
C40	C	0.840890	0.391633	0.229394
H22	H	0.543729	0.642944	0.806608
H23	H	0.796378	0.357526	0.309051
C41	C	0.546925	0.525079	0.651312
C42	C	0.797658	0.474711	0.152754
H24	H	0.718952	0.505201	0.175264
C43	C	0.608164	0.484270	0.550116
C44	C	0.857832	0.515656	0.050638
C45	C	0.933310	0.099319	0.466621
C46	C	0.681517	0.899720	0.965672
C47	C	0.567377	0.394474	0.470676
C48	C	0.816043	0.604172	0.969107
Cfg1	Cfg	0.565275	0.008840	0.684172
Cfg2	Cfg	0.627412	0.971679	0.782487
Hfg1	Hfg	0.601610	0.070289	0.627915
Hfg2	Hfg	0.603422	0.909799	0.848759
Hfg3	Hfg	0.706872	0.005005	0.797645
Cfg3	Cfg	0.315548	0.988283	0.182721
Cfg4	Cfg	0.378510	0.024303	0.280908
Hfg4	Hfg	0.350937	0.926682	0.125807
Hfg5	Hfg	0.355506	0.086143	0.347770
Hfg6	Hfg	0.457635	0.990014	0.295342
Cfg5	Cfg	0.935905	0.482330	0.683055
Cfg6	Cfg	0.874060	0.518493	0.778866
Hfg7	Hfg	0.901109	0.418530	0.627338
Hfg8	Hfg	0.896689	0.582370	0.844275
Hfg9	Hfg	0.796306	0.482167	0.792774
Cfg7	Cfg	0.529948	0.509415	0.917711
Cfg8	Cfg	0.627102	0.470050	0.891462
Hfg10	Hfg	0.503956	0.572153	0.853825
Hfg11	Hfg	0.665470	0.406667	0.946081
Hfg12	Hfg	0.670857	0.503069	0.810720
Cfg9	Cfg	0.715572	0.008802	0.409594
Cfg10	Cfg	0.616894	0.971664	0.381549
Hfg13	Hfg	0.741843	0.070274	0.345459
Hfg14	Hfg	0.578046	0.909767	0.436117
Hfg15	Hfg	0.572329	0.005030	0.299287
Cfg11	Cfg	0.464868	0.993919	0.909973
Cfg12	Cfg	0.366697	0.032647	0.882563
Hfg16	Hfg	0.490029	0.932323	0.845334
Hfg17	Hfg	0.328941	0.094896	0.937690
Hfg18	Hfg	0.321415	0.000290	0.800262
Cfg13	Cfg	0.435905	0.482330	0.683055
Cfg14	Cfg	0.374060	0.518493	0.778866
Hfg19	Hfg	0.401109	0.418530	0.627338
Hfg20	Hfg	0.396689	0.582370	0.844275
Hfg21	Hfg	0.296306	0.482167	0.792774
Cfg15	Cfg	0.029949	0.509415	0.917712
Cfg16	Cfg	0.127103	0.470051	0.891463
Hfg22	Hfg	0.003958	0.572154	0.853826
Hfg23	Hfg	0.165471	0.406667	0.946082
Hfg24	Hfg	0.170858	0.503070	0.810722

loop_
_geom_bond_atom_site_label_1
_geom_bond_atom_site_label_2
_geom_bond_distance
Ni1	O2	0.16599
Ni1	O4	0.16318
Ni1	O6	0.18273
Ni1	O8	0.18366
Ni1	N1	0.17612
Ni1	N3	0.17584
Ni2	O3	0.16282
Ni2	O5	0.18195
Ni2	N4	0.17757
Ni2	O9	0.16410
Ni2	O15	0.18358
Ni2	N6	0.17676
O1	C23	0.11387
O1	Ni4	0.16410
O2	C24	0.11378
O3	C21	0.11586
O4	C22	0.11585
O5	C47	0.10254
O6	C24	0.10252
O7	Ni4	0.18358
O7	C45	0.10305
O8	C22	0.10301
N1	C11	0.12347
N1	C13	0.10899
N2	C12	0.12355
N2	C14	0.10891
N2	Ni4	0.17676
N3	C9	0.12117
N3	C15	0.10822
N4	C10	0.12114
N4	C16	0.10817
C1	H1	0.09850
C1	C3	0.11328
C1	C11	0.12097
C2	C4	0.11325
C2	C12	0.12119
C2	H13	0.09852
C3	C5	0.12757
C3	C21	0.12596
C4	C6	0.12764
C4	C22	0.12621
C5	C13	0.12008
C5	Cfg1	0.12444
C6	C14	0.12032
C6	Cfg3	0.12433
H2	C29	0.08819
C7	H3	0.09658
C7	C9	0.12152
C7	C19	0.11239
C8	C10	0.12175
C8	C20	0.11233
C8	Cfg7	0.13669
C9	H4	0.08706
C10	H17	0.08704
H5	C34	0.08704
C11	H6	0.08757
C12	H19	0.08756
H7	C36	0.08756
C13	H8	0.09912
C14	H9	0.09914
C15	H10	0.09732
C15	C17	0.12075
C16	H11	0.09742
C16	C18	0.12102
C17	C19	0.12512
C17	Cfg5	0.12313
C18	H12	0.08736
C18	C20	0.12540
C19	C23	0.12664
C20	C24	0.12739
C21	O15	0.10305
C23	O13	0.10254
Ni3	O10	0.16599
Ni3	O12	0.16318
Ni3	O14	0.18273
Ni3	O16	0.18366
Ni3	N5	0.17612
Ni3	N7	0.17584
Ni4	O11	0.16282
Ni4	O13	0.18195
Ni4	N8	0.17757
O9	C47	0.11388
O10	C48	0.11378
O11	C45	0.11586
O12	C46	0.11585
O14	C48	0.10252
O16	C46	0.10301
N5	C35	0.12347
N5	C37	0.10899
N6	C36	0.12355
N6	C38	0.10891
N7	C33	0.12117
N7	C39	0.10822
N8	C34	0.12114
N8	C40	0.10817
C25	C27	0.11328
C25	C35	0.12097
C25	Cfg9	0.13932
C26	C28	0.11325
C26	C36	0.12119
C26	Cfg11	0.13931
C27	C29	0.12757
C27	C45	0.12596
C28	C30	0.12764
C28	C46	0.12621
C29	C37	0.12008
C30	H14	0.08814
C30	C38	0.12032
C31	H15	0.09658
C31	C33	0.12152
C31	C43	0.11239
C32	C34	0.12175
C32	C44	0.11233
C32	Cfg15	0.13669
C33	H16	0.08706
C35	H18	0.08757
C37	H20	0.09912
C38	H21	0.09914
C39	H22	0.09732
C39	C41	0.12075
C40	H23	0.09742
C40	C42	0.12102
C41	C43	0.12512
C41	Cfg13	0.12313
C42	H24	0.08736
C42	C44	0.12540
C43	C47	0.12664
C44	C48	0.12739
Cfg1	Cfg2	0.12210
Cfg1	Hfg1	0.09089
Cfg2	Hfg2	0.09379
Cfg2	Hfg3	0.08749
Hfg2	Hfg3	0.14960
Cfg3	Cfg4	0.12208
Cfg3	Hfg4	0.09103
Cfg4	Hfg5	0.09394
Cfg4	Hfg6	0.08743
Hfg5	Hfg6	0.14973
Cfg5	Cfg6	0.11963
Cfg5	Hfg7	0.09157
Cfg6	Hfg8	0.09418
Cfg6	Hfg9	0.08694
Hfg8	Hfg9	0.15090
Cfg7	Cfg8	0.10806
Cfg7	Hfg10	0.09324
Cfg8	Hfg11	0.09205
Cfg8	Hfg12	0.09759
Hfg11	Hfg12	0.16627
Cfg9	Cfg10	0.10910
Cfg9	Hfg13	0.09264
Cfg10	Hfg14	0.09120
Cfg10	Hfg15	0.09933
Hfg14	Hfg15	0.16682
Cfg11	Cfg12	0.10903
Cfg11	Hfg16	0.09276
Cfg12	Hfg17	0.09132
Cfg12	Hfg18	0.09935
Hfg17	Hfg18	0.16701
Cfg13	Cfg14	0.11963
Cfg13	Hfg19	0.09157
Cfg14	Hfg20	0.09418
Cfg14	Hfg21	0.08694
Hfg20	Hfg21	0.15090
Cfg15	Cfg16	0.10806
Cfg15	Hfg22	0.09324
Cfg16	Hfg23	0.09205
Cfg16	Hfg24	0.09759
Hfg23	Hfg24	0.16627
