data_NiPyC2_relax_sc211_NiPyC2_relax_sc211_aligned_CH2-NH2_NiPyC2_relax_sc211_aligned_CH2-NH2_NiPyC2_relax_sc211_aligned_CH2-NH2_NiPyC2_relax_sc211_aligned_CH2-NH2_NiPyC2_relax_sc211_aligned_CH2-NH2_NiPyC2_relax_sc211_aligned_CH2-NH2_NiPyC2_relax_sc211_aligned_CH2-NH2_NiPyC2_relax_sc211_aligned_CH2-NH2_PM
_symmetry_space_group_name_H-M	'P1'
_cell_length_a	12.505600
_cell_length_b	12.523400
_cell_length_c	10.276800
_cell_angle_alpha	90.000000
_cell_angle_beta	91.269000
_cell_angle_gamma	90.000000
_symmetry_Int_Tables_number 1

loop_
_symmetry_equiv_pos_as_xyz
'x,y,z'

loop_
_atom_site_label
_atom_site_type_symbol
_atom_site_fract_x
_atom_site_fract_y
_atom_site_fract_z
Ni1	Ni	0.247002	0.751486	0.836326
Ni2	Ni	0.499972	0.247999	0.339178
O1	O	0.122778	0.347689	0.382873
O2	O	0.371208	0.650977	0.881292
O3	O	0.377630	0.147507	0.377178
O4	O	0.125098	0.852352	0.876261
O5	O	0.473069	0.356160	0.482994
O6	O	0.221137	0.641415	0.979877
O7	O	0.028840	0.135158	0.481078
O8	O	0.276686	0.862758	0.979399
N1	N	0.308437	0.851253	0.704828
N2	N	0.060729	0.148857	0.206052
N3	N	0.186542	0.650310	0.705838
N4	N	0.438810	0.350928	0.208041
C1	C	0.288212	0.970050	0.521984
C2	C	0.038379	0.031106	0.022308
H1	H	0.237124	0.999575	0.443113
H2	H	0.486538	0.002692	0.943499
C3	C	0.390634	0.011770	0.546492
C4	C	0.140244	0.987744	0.046146
C5	C	0.451915	0.970202	0.650371
C6	C	0.202520	0.028353	0.149893
H3	H	0.032063	0.998805	0.673520
C7	C	0.208181	0.529704	0.526384
C8	C	0.458545	0.471409	0.027904
H4	H	0.258700	0.500895	0.449282
H5	H	0.008641	0.500397	0.950548
C9	C	0.245137	0.613331	0.606435
C10	C	0.496819	0.388677	0.108617
H6	H	0.322641	0.650506	0.592635
H7	H	0.074968	0.352851	0.095028
C11	C	0.249476	0.889206	0.603203
C12	C	0.001069	0.112232	0.104247
H8	H	0.170154	0.855123	0.588560
H9	H	0.422322	0.147732	0.089886
C13	C	0.407977	0.889383	0.727552
C14	C	0.159935	0.109547	0.227812
H10	H	0.453370	0.855173	0.808761
H11	H	0.206239	0.143103	0.308797
C15	C	0.088862	0.608983	0.727352
C16	C	0.340890	0.391633	0.229394
H12	H	0.043729	0.642944	0.806608
H13	H	0.296378	0.357526	0.309051
C17	C	0.046925	0.525079	0.651312
C18	C	0.297658	0.474711	0.152754
C19	C	0.108164	0.484270	0.550116
C20	C	0.357832	0.515656	0.050638
C21	C	0.433310	0.099319	0.466621
C22	C	0.181517	0.899720	0.965672
C23	C	0.067378	0.394474	0.470676
C24	C	0.316043	0.604172	0.969107
Ni3	Ni	0.747002	0.751486	0.836326
Ni4	Ni	0.999972	0.247999	0.339178
O9	O	0.622779	0.347689	0.382873
O10	O	0.871208	0.650977	0.881292
O11	O	0.877630	0.147507	0.377178
O12	O	0.625098	0.852352	0.876261
O13	O	0.973069	0.356160	0.482994
O14	O	0.721137	0.641415	0.979877
O15	O	0.528840	0.135158	0.481078
O16	O	0.776686	0.862758	0.979399
N5	N	0.808437	0.851253	0.704828
N6	N	0.560729	0.148857	0.206052
N7	N	0.686543	0.650310	0.705838
N8	N	0.938810	0.350928	0.208041
C25	C	0.788212	0.970050	0.521984
C26	C	0.538379	0.031106	0.022308
H14	H	0.986538	0.002692	0.943499
C27	C	0.890634	0.011770	0.546492
C28	C	0.640244	0.987744	0.046146
C29	C	0.951915	0.970202	0.650371
C30	C	0.702520	0.028353	0.149893
C31	C	0.708182	0.529704	0.526384
C32	C	0.958546	0.471409	0.027904
H15	H	0.758700	0.500895	0.449282
H16	H	0.508641	0.500397	0.950548
C33	C	0.745137	0.613331	0.606435
C34	C	0.996819	0.388677	0.108617
H17	H	0.822641	0.650506	0.592635
H18	H	0.574968	0.352851	0.095028
C35	C	0.749476	0.889206	0.603203
C36	C	0.501069	0.112232	0.104247
H19	H	0.670154	0.855123	0.588560
H20	H	0.922322	0.147732	0.089886
C37	C	0.907977	0.889383	0.727552
C38	C	0.659934	0.109547	0.227812
H21	H	0.953370	0.855173	0.808761
H22	H	0.706240	0.143103	0.308797
C39	C	0.588862	0.608983	0.727352
C40	C	0.840890	0.391633	0.229394
H23	H	0.543729	0.642944	0.806608
H24	H	0.796378	0.357526	0.309051
C41	C	0.546925	0.525079	0.651312
C42	C	0.797658	0.474711	0.152754
C43	C	0.608164	0.484270	0.550116
C44	C	0.857832	0.515656	0.050638
C45	C	0.933310	0.099319	0.466621
C46	C	0.681517	0.899720	0.965672
C47	C	0.567377	0.394474	0.470676
C48	C	0.816043	0.604172	0.969107
Cfg1	Cfg	0.565570	0.010576	0.681359
Nfg1	Nfg	0.616392	0.959058	0.794434
Hfg1	Hfg	0.562815	0.097999	0.700135
Hfg2	Hfg	0.615686	0.994798	0.595476
Hfg3	Hfg	0.576696	0.982649	0.878281
Hfg4	Hfg	0.694995	0.986968	0.803803
Cfg2	Cfg	0.315555	0.986091	0.180391
Nfg2	Nfg	0.368882	0.039172	0.290682
Hfg5	Hfg	0.365829	0.996952	0.093427
Hfg6	Hfg	0.309484	0.899622	0.203446
Hfg7	Hfg	0.385536	0.118198	0.264959
Hfg8	Hfg	0.442371	0.001553	0.308760
Cfg3	Cfg	0.935647	0.480511	0.680306
Nfg3	Nfg	0.884692	0.531875	0.790654
Hfg9	Hfg	0.942422	0.393639	0.701500
Hfg10	Hfg	0.883373	0.492614	0.592672
Hfg11	Hfg	0.926846	0.511493	0.876185
Hfg12	Hfg	0.807483	0.500859	0.798688
Cfg4	Cfg	0.186025	0.518207	0.182282
Nfg4	Nfg	0.136253	0.466941	0.293514
Hfg13	Hfg	0.191930	0.605272	0.202636
Hfg14	Hfg	0.133430	0.505006	0.095168
Hfg15	Hfg	0.178624	0.488297	0.378531
Hfg16	Hfg	0.058754	0.497149	0.301888
Cfg5	Cfg	0.717279	0.010977	0.408545
Nfg5	Nfg	0.613858	0.956983	0.396691
Hfg17	Hfg	0.760006	0.999771	0.315741
Hfg18	Hfg	0.702183	0.097446	0.424141
Hfg19	Hfg	0.626357	0.877840	0.368101
Hfg20	Hfg	0.568999	0.993700	0.322178
Cfg6	Cfg	0.815555	0.986091	0.180391
Nfg6	Nfg	0.868881	0.039173	0.290682
Hfg21	Hfg	0.865829	0.996954	0.093427
Hfg22	Hfg	0.809485	0.899623	0.203447
Hfg23	Hfg	0.885536	0.118199	0.264960
Hfg24	Hfg	0.942370	0.001555	0.308760
Cfg7	Cfg	0.435911	0.480091	0.680793
Nfg7	Nfg	0.383457	0.533842	0.788372
Hfg25	Hfg	0.383384	0.487627	0.592497
Hfg26	Hfg	0.445097	0.394351	0.706633
Hfg27	Hfg	0.363854	0.611774	0.759883
Hfg28	Hfg	0.311519	0.494434	0.806140
Cfg8	Cfg	0.686286	0.518633	0.182763
Nfg8	Nfg	0.635027	0.464947	0.291260
Hfg29	Hfg	0.633383	0.509992	0.094948
Hfg30	Hfg	0.694640	0.604620	0.207755
Hfg31	Hfg	0.616157	0.386636	0.263631
Hfg32	Hfg	0.562756	0.503662	0.309250

loop_
_geom_bond_atom_site_label_1
_geom_bond_atom_site_label_2
_geom_bond_distance
Ni1	O2	0.16599
Ni1	O4	0.16318
Ni1	O6	0.18273
Ni1	O8	0.18366
Ni1	N1	0.17612
Ni1	N3	0.17584
Ni2	O3	0.16282
Ni2	O5	0.18195
Ni2	N4	0.17757
Ni2	O9	0.16410
Ni2	O15	0.18358
Ni2	N6	0.17676
O1	C23	0.11387
O1	Ni4	0.16410
O2	C24	0.11378
O3	C21	0.11586
O4	C22	0.11585
O5	C47	0.10254
O6	C24	0.10252
O7	Ni4	0.18358
O7	C45	0.10305
O8	C22	0.10301
N1	C11	0.12347
N1	C13	0.10899
N2	C12	0.12355
N2	C14	0.10891
N2	Ni4	0.17676
N3	C9	0.12117
N3	C15	0.10822
N4	C10	0.12114
N4	C16	0.10817
C1	H1	0.09850
C1	C3	0.11328
C1	C11	0.12097
C2	C4	0.11325
C2	C12	0.12119
C2	H14	0.09852
H2	C26	0.09852
C3	C5	0.12757
C3	C21	0.12596
C4	C6	0.12764
C4	C22	0.12621
C5	C13	0.12008
C5	Cfg1	0.12453
C6	C14	0.12032
C6	Cfg2	0.12447
H3	C29	0.08819
C7	H4	0.09658
C7	C9	0.12152
C7	C19	0.11239
C8	C10	0.12175
C8	C20	0.11233
C8	H16	0.09661
H5	C32	0.09661
C9	H6	0.08706
C10	H18	0.08704
H7	C34	0.08704
C11	H8	0.08757
C12	H20	0.08756
H9	C36	0.08756
C13	H10	0.09912
C14	H11	0.09914
C15	H12	0.09732
C15	C17	0.12075
C16	H13	0.09742
C16	C18	0.12102
C17	C19	0.12512
C17	Cfg3	0.12333
C18	C20	0.12540
C18	Cfg4	0.12339
C19	C23	0.12664
C20	C24	0.12739
C21	O15	0.10305
C23	O13	0.10254
Ni3	O10	0.16599
Ni3	O12	0.16318
Ni3	O14	0.18273
Ni3	O16	0.18366
Ni3	N5	0.17612
Ni3	N7	0.17584
Ni4	O11	0.16282
Ni4	O13	0.18195
Ni4	N8	0.17757
O9	C47	0.11388
O10	C48	0.11378
O11	C45	0.11586
O12	C46	0.11585
O14	C48	0.10252
O16	C46	0.10301
N5	C35	0.12347
N5	C37	0.10899
N6	C36	0.12355
N6	C38	0.10891
N7	C33	0.12117
N7	C39	0.10822
N8	C34	0.12114
N8	C40	0.10817
C25	C27	0.11328
C25	C35	0.12097
C25	Cfg5	0.13991
C26	C28	0.11325
C26	C36	0.12119
C27	C29	0.12757
C27	C45	0.12596
C28	C30	0.12764
C28	C46	0.12621
C29	C37	0.12008
C30	C38	0.12032
C30	Cfg6	0.12447
C31	H15	0.09658
C31	C33	0.12152
C31	C43	0.11239
C32	C34	0.12175
C32	C44	0.11233
C33	H17	0.08706
C35	H19	0.08757
C37	H21	0.09912
C38	H22	0.09914
C39	H23	0.09732
C39	C41	0.12075
C40	H24	0.09742
C40	C42	0.12102
C41	C43	0.12512
C41	Cfg7	0.12336
C42	C44	0.12540
C42	Cfg8	0.12342
C43	C47	0.12664
C44	C48	0.12739
Cfg1	Nfg1	0.13425
Cfg1	Hfg1	0.08946
Cfg1	Hfg2	0.10068
Nfg1	Hfg3	0.09572
Nfg1	Hfg4	0.08394
Hfg1	Hfg2	0.15620
Hfg3	Hfg4	0.13986
Cfg2	Nfg2	0.13351
Cfg2	Hfg5	0.10104
Cfg2	Hfg6	0.08969
Nfg2	Hfg7	0.08476
Nfg2	Hfg8	0.08451
Hfg5	Hfg6	0.15733
Hfg7	Hfg8	0.13695
Cfg3	Nfg3	0.13195
Cfg3	Hfg9	0.08968
Cfg3	Hfg10	0.10276
Nfg3	Hfg11	0.09751
Nfg3	Hfg12	0.08359
Hfg9	Hfg10	0.15851
Hfg11	Hfg12	0.14271
Cfg4	Nfg4	0.13220
Cfg4	Hfg13	0.08961
Cfg4	Hfg14	0.10261
Nfg4	Hfg15	0.09736
Nfg4	Hfg16	0.08360
Hfg13	Hfg14	0.15819
Hfg15	Hfg16	0.14255
Cfg5	Nfg5	0.11727
Cfg5	Hfg17	0.10278
Cfg5	Hfg18	0.08915
Nfg5	Hfg19	0.08507
Nfg5	Hfg20	0.09441
Hfg17	Hfg18	0.15695
Hfg19	Hfg20	0.13719
Cfg6	Nfg6	0.13351
Cfg6	Hfg21	0.10104
Cfg6	Hfg22	0.08969
Nfg6	Hfg23	0.08476
Nfg6	Hfg24	0.08451
Hfg21	Hfg22	0.15733
Hfg23	Hfg24	0.13695
Cfg7	Nfg7	0.13120
Cfg7	Hfg25	0.10302
Cfg7	Hfg26	0.09002
Nfg7	Hfg27	0.08526
Nfg7	Hfg28	0.08393
Hfg25	Hfg26	0.15980
Hfg27	Hfg28	0.13655
Cfg8	Nfg8	0.13146
Cfg8	Hfg29	0.10288
Cfg8	Hfg30	0.08993
Nfg8	Hfg31	0.08516
Nfg8	Hfg32	0.08394
Hfg29	Hfg30	0.15948
Hfg31	Hfg32	0.13648
