data_NiPyC2_relax_sc211_NiPyC2_relax_sc211_aligned_C-3CH3_NiPyC2_relax_sc211_aligned_C-3CH3_NiPyC2_relax_sc211_aligned_C-3CH3_NiPyC2_relax_sc211_aligned_C-3CH3_NiPyC2_relax_sc211_aligned_C-3CH3_NiPyC2_relax_sc211_aligned_C-3CH3_NiPyC2_relax_sc211_aligned_C-3CH3_NiPyC2_relax_sc211_aligned_C-3CH3_PM
_symmetry_space_group_name_H-M	'P1'
_cell_length_a	12.505600
_cell_length_b	12.523400
_cell_length_c	10.276800
_cell_angle_alpha	90.000000
_cell_angle_beta	91.269000
_cell_angle_gamma	90.000000
_symmetry_Int_Tables_number 1

loop_
_symmetry_equiv_pos_as_xyz
'x,y,z'

loop_
_atom_site_label
_atom_site_type_symbol
_atom_site_fract_x
_atom_site_fract_y
_atom_site_fract_z
Ni1	Ni	0.247002	0.751486	0.836326
Ni2	Ni	0.499972	0.247999	0.339178
O1	O	0.122778	0.347689	0.382873
O2	O	0.371208	0.650977	0.881292
O3	O	0.377630	0.147507	0.377178
O4	O	0.125098	0.852352	0.876261
O5	O	0.473069	0.356160	0.482994
O6	O	0.221137	0.641415	0.979877
O7	O	0.028840	0.135158	0.481078
O8	O	0.276686	0.862758	0.979399
N1	N	0.308437	0.851253	0.704828
N2	N	0.060729	0.148857	0.206052
N3	N	0.186542	0.650310	0.705838
N4	N	0.438810	0.350928	0.208041
C1	C	0.288212	0.970050	0.521984
C2	C	0.038379	0.031106	0.022308
H1	H	0.237124	0.999575	0.443113
H2	H	0.486538	0.002692	0.943499
C3	C	0.390634	0.011770	0.546492
C4	C	0.140244	0.987744	0.046146
C5	C	0.451915	0.970202	0.650371
C6	C	0.202520	0.028353	0.149893
H3	H	0.032063	0.998805	0.673520
H4	H	0.282340	0.998665	0.172602
C7	C	0.208181	0.529704	0.526384
C8	C	0.458545	0.471409	0.027904
H5	H	0.258700	0.500895	0.449282
H6	H	0.008641	0.500397	0.950548
C9	C	0.245137	0.613331	0.606435
C10	C	0.496819	0.388677	0.108617
H7	H	0.074968	0.352851	0.095028
C11	C	0.249476	0.889206	0.603203
C12	C	0.001069	0.112232	0.104247
C13	C	0.407977	0.889383	0.727552
C14	C	0.159935	0.109547	0.227812
H8	H	0.453370	0.855173	0.808761
H9	H	0.206239	0.143103	0.308797
C15	C	0.088862	0.608983	0.727352
C16	C	0.340890	0.391633	0.229394
H10	H	0.043729	0.642944	0.806608
C17	C	0.046925	0.525079	0.651312
C18	C	0.297658	0.474711	0.152754
H11	H	0.468672	0.493231	0.673502
H12	H	0.218952	0.505201	0.175264
C19	C	0.108164	0.484270	0.550116
C20	C	0.357832	0.515656	0.050638
C21	C	0.433310	0.099319	0.466621
C22	C	0.181517	0.899720	0.965672
C23	C	0.067378	0.394474	0.470676
C24	C	0.316043	0.604172	0.969107
Ni3	Ni	0.747002	0.751486	0.836326
Ni4	Ni	0.999972	0.247999	0.339178
O9	O	0.622779	0.347689	0.382873
O10	O	0.871208	0.650977	0.881292
O11	O	0.877630	0.147507	0.377178
O12	O	0.625098	0.852352	0.876261
O13	O	0.973069	0.356160	0.482994
O14	O	0.721137	0.641415	0.979877
O15	O	0.528840	0.135158	0.481078
O16	O	0.776686	0.862758	0.979399
N5	N	0.808437	0.851253	0.704828
N6	N	0.560729	0.148857	0.206052
N7	N	0.686543	0.650310	0.705838
N8	N	0.938810	0.350928	0.208041
C25	C	0.788212	0.970050	0.521984
C26	C	0.538379	0.031106	0.022308
H13	H	0.737124	0.999575	0.443113
H14	H	0.986538	0.002692	0.943499
C27	C	0.890634	0.011770	0.546492
C28	C	0.640244	0.987744	0.046146
C29	C	0.951915	0.970202	0.650371
C30	C	0.702520	0.028353	0.149893
H15	H	0.532062	0.998805	0.673520
H16	H	0.782340	0.998665	0.172602
C31	C	0.708182	0.529704	0.526384
C32	C	0.958546	0.471409	0.027904
H17	H	0.758700	0.500895	0.449282
H18	H	0.508641	0.500397	0.950548
C33	C	0.745137	0.613331	0.606435
C34	C	0.996819	0.388677	0.108617
H19	H	0.574968	0.352851	0.095028
C35	C	0.749476	0.889206	0.603203
C36	C	0.501069	0.112232	0.104247
H20	H	0.670154	0.855123	0.588560
C37	C	0.907977	0.889383	0.727552
C38	C	0.659934	0.109547	0.227812
H21	H	0.706240	0.143103	0.308797
C39	C	0.588862	0.608983	0.727352
C40	C	0.840890	0.391633	0.229394
H22	H	0.543729	0.642944	0.806608
C41	C	0.546925	0.525079	0.651312
C42	C	0.797658	0.474711	0.152754
H23	H	0.968672	0.493231	0.673502
H24	H	0.718952	0.505201	0.175264
C43	C	0.608164	0.484270	0.550116
C44	C	0.857832	0.515656	0.050638
C45	C	0.933310	0.099319	0.466621
C46	C	0.681517	0.899720	0.965672
C47	C	0.567377	0.394474	0.470676
C48	C	0.816043	0.604172	0.969107
Cfg1	Cfg	0.132000	0.835854	0.581155
Cfg2	Cfg	0.106417	0.747816	0.683273
Hfg1	Hfg	0.164046	0.680343	0.678962
Hfg2	Hfg	0.025492	0.713302	0.664954
Hfg3	Hfg	0.106800	0.780615	0.783845
Cfg3	Cfg	0.042767	0.920315	0.599153
Hfg4	Hfg	0.047362	0.952369	0.700016
Hfg5	Hfg	0.962471	0.883683	0.584028
Hfg6	Hfg	0.045179	0.990749	0.536360
Cfg4	Cfg	0.124877	0.776499	0.448721
Hfg7	Hfg	0.185066	0.711177	0.447729
Hfg8	Hfg	0.140516	0.823766	0.361694
Hfg9	Hfg	0.044468	0.740064	0.433801
Cfg5	Cfg	0.884409	0.167513	0.082787
Cfg6	Cfg	0.860361	0.255502	0.185556
Hfg10	Hfg	0.860355	0.222270	0.285908
Hfg11	Hfg	0.779973	0.291359	0.167637
Hfg12	Hfg	0.919046	0.322079	0.181584
Cfg7	Cfg	0.878053	0.227541	0.950767
Hfg13	Hfg	0.939267	0.291915	0.950093
Hfg14	Hfg	0.798215	0.265296	0.936260
Hfg15	Hfg	0.892825	0.180410	0.863387
Cfg8	Cfg	0.793876	0.084385	0.100397
Hfg16	Hfg	0.798094	0.051832	0.201035
Hfg17	Hfg	0.795088	0.014193	0.037120
Hfg18	Hfg	0.714153	0.122337	0.085684
Cfg9	Cfg	0.359748	0.671300	0.585912
Cfg10	Cfg	0.383591	0.761967	0.686550
Hfg19	Hfg	0.386637	0.730796	0.787893
Hfg20	Hfg	0.462613	0.799606	0.669288
Hfg21	Hfg	0.323021	0.826836	0.679312
Cfg11	Cfg	0.361661	0.728778	0.452235
Hfg22	Hfg	0.298692	0.791444	0.448306
Hfg23	Hfg	0.440154	0.768368	0.438316
Hfg24	Hfg	0.346311	0.679504	0.365958
Cfg12	Cfg	0.452903	0.591027	0.607970
Hfg25	Hfg	0.451712	0.560426	0.709488
Hfg26	Hfg	0.452250	0.519563	0.546780
Hfg27	Hfg	0.531271	0.630806	0.593837
Cfg13	Cfg	0.276142	0.338749	0.349002
Cfg14	Cfg	0.339671	0.247961	0.420245
Hfg28	Hfg	0.415935	0.278017	0.464259
Hfg29	Hfg	0.292914	0.213866	0.501205
Hfg30	Hfg	0.357250	0.180712	0.353361
Cfg15	Cfg	0.172612	0.283006	0.298081
Hfg31	Hfg	0.193748	0.217818	0.229850
Hfg32	Hfg	0.128543	0.246899	0.379918
Hfg33	Hfg	0.115203	0.332624	0.243688
Cfg16	Cfg	0.256784	0.422570	0.457137
Hfg34	Hfg	0.334911	0.451878	0.496601
Hfg35	Hfg	0.212934	0.494670	0.428366
Hfg36	Hfg	0.212598	0.386272	0.538756
Cfg17	Cfg	0.973817	0.836100	0.849580
Cfg18	Cfg	0.909240	0.748072	0.921109
Hfg37	Hfg	0.888244	0.680548	0.855066
Hfg38	Hfg	0.956782	0.713632	0.003725
Hfg39	Hfg	0.834828	0.780857	0.962910
Cfg19	Cfg	0.997981	0.920638	0.956616
Hfg40	Hfg	0.921586	0.952675	0.993842
Hfg41	Hfg	0.042903	0.884079	0.039875
Hfg42	Hfg	0.043278	0.991078	0.927477
Cfg20	Cfg	0.074593	0.776769	0.801935
Hfg43	Hfg	0.050070	0.711393	0.734429
Hfg44	Hfg	0.132231	0.824033	0.747878
Hfg45	Hfg	0.119410	0.740408	0.885406
Cfg21	Cfg	0.384408	0.167512	0.082788
Cfg22	Cfg	0.360356	0.255494	0.185565
Hfg46	Hfg	0.419039	0.322074	0.181598
Hfg47	Hfg	0.279967	0.291349	0.167647
Hfg48	Hfg	0.360351	0.222256	0.285913
Cfg23	Cfg	0.293876	0.084381	0.100390
Hfg49	Hfg	0.298094	0.051821	0.201025
Hfg50	Hfg	0.214153	0.122331	0.085679
Hfg51	Hfg	0.295091	0.014193	0.037107
Cfg24	Cfg	0.378053	0.227546	0.950773
Hfg52	Hfg	0.439265	0.291922	0.950106
Hfg53	Hfg	0.392827	0.180420	0.863389
Hfg54	Hfg	0.298214	0.265300	0.936267
Cfg25	Cfg	0.859749	0.671300	0.585912
Cfg26	Cfg	0.883596	0.761961	0.686557
Hfg55	Hfg	0.823028	0.826833	0.679325
Hfg56	Hfg	0.962619	0.799598	0.669297
Hfg57	Hfg	0.886642	0.730784	0.787897
Cfg27	Cfg	0.952903	0.591024	0.607962
Hfg58	Hfg	0.951713	0.560416	0.709478
Hfg59	Hfg	0.031271	0.630802	0.593831
Hfg60	Hfg	0.952248	0.519564	0.546766
Cfg28	Cfg	0.861660	0.728784	0.452239
Hfg61	Hfg	0.798693	0.791452	0.448319
Hfg62	Hfg	0.846307	0.679515	0.365959
Hfg63	Hfg	0.940155	0.768373	0.438322
Cfg29	Cfg	0.776142	0.338749	0.349002
Cfg30	Cfg	0.839671	0.247961	0.420245
Hfg64	Hfg	0.915935	0.278017	0.464259
Hfg65	Hfg	0.792914	0.213866	0.501205
Hfg66	Hfg	0.857250	0.180712	0.353361
Cfg31	Cfg	0.672612	0.283006	0.298081
Hfg67	Hfg	0.693748	0.217818	0.229850
Hfg68	Hfg	0.628543	0.246899	0.379918
Hfg69	Hfg	0.615203	0.332624	0.243688
Cfg32	Cfg	0.756784	0.422570	0.457137
Hfg70	Hfg	0.834911	0.451878	0.496601
Hfg71	Hfg	0.712934	0.494670	0.428366
Hfg72	Hfg	0.712598	0.386272	0.538756

loop_
_geom_bond_atom_site_label_1
_geom_bond_atom_site_label_2
_geom_bond_distance
Ni1	O2	0.16599
Ni1	O4	0.16318
Ni1	O6	0.18273
Ni1	O8	0.18366
Ni1	N1	0.17612
Ni1	N3	0.17584
Ni2	O3	0.16282
Ni2	O5	0.18195
Ni2	N4	0.17757
Ni2	O9	0.16410
Ni2	O15	0.18358
Ni2	N6	0.17676
O1	C23	0.11387
O1	Ni4	0.16410
O2	C24	0.11378
O3	C21	0.11586
O4	C22	0.11585
O5	C47	0.10254
O6	C24	0.10252
O7	Ni4	0.18358
O7	C45	0.10305
O8	C22	0.10301
N1	C11	0.12347
N1	C13	0.10899
N2	C12	0.12355
N2	C14	0.10891
N2	Ni4	0.17676
N3	C9	0.12117
N3	C15	0.10822
N4	C10	0.12114
N4	C16	0.10817
C1	H1	0.09850
C1	C3	0.11328
C1	C11	0.12097
C2	C4	0.11325
C2	C12	0.12119
C2	H14	0.09852
H2	C26	0.09852
C3	C5	0.12757
C3	C21	0.12596
C4	C6	0.12764
C4	C22	0.12621
C5	C13	0.12008
C5	H15	0.08819
C6	H4	0.08814
C6	C14	0.12032
H3	C29	0.08819
C7	H5	0.09658
C7	C9	0.12152
C7	C19	0.11239
C8	C10	0.12175
C8	C20	0.11233
C8	H18	0.09661
H6	C32	0.09661
C9	Cfg9	0.13007
C10	H19	0.08704
H7	C34	0.08704
C11	Cfg1	0.13089
C12	Cfg5	0.13087
C13	H8	0.09912
C14	H9	0.09914
C15	H10	0.09732
C15	C17	0.12075
C16	C18	0.12102
C16	Cfg13	0.14593
C17	C19	0.12512
C17	H23	0.08735
C18	H12	0.08736
C18	C20	0.12540
H11	C41	0.08735
C19	C23	0.12664
C20	C24	0.12739
C21	O15	0.10305
C23	O13	0.10254
Ni3	O10	0.16599
Ni3	O12	0.16318
Ni3	O14	0.18273
Ni3	O16	0.18366
Ni3	N5	0.17612
Ni3	N7	0.17584
Ni4	O11	0.16282
Ni4	O13	0.18195
Ni4	N8	0.17757
O9	C47	0.11388
O10	C48	0.11378
O11	C45	0.11586
O12	C46	0.11585
O14	C48	0.10252
O16	C46	0.10301
N5	C35	0.12347
N5	C37	0.10899
N6	C36	0.12355
N6	C38	0.10891
N7	C33	0.12117
N7	C39	0.10822
N8	C34	0.12114
N8	C40	0.10817
C25	H13	0.09850
C25	C27	0.11328
C25	C35	0.12097
C26	C28	0.11325
C26	C36	0.12119
C27	C29	0.12757
C27	C45	0.12596
C28	C30	0.12764
C28	C46	0.12621
C29	C37	0.12008
C30	H16	0.08814
C30	C38	0.12032
C31	H17	0.09658
C31	C33	0.12152
C31	C43	0.11239
C32	C34	0.12175
C32	C44	0.11233
C33	Cfg25	0.13007
C35	H20	0.08757
C36	Cfg21	0.13087
C37	Cfg17	0.14854
C38	H21	0.09914
C39	H22	0.09732
C39	C41	0.12075
C40	C42	0.12102
C41	C43	0.12512
C42	H24	0.08736
C42	C44	0.12540
C43	C47	0.12664
C44	C48	0.12739
Cfg1	Cfg2	0.13723
Cfg1	Cfg3	0.12418
Cfg1	Cfg4	0.14530
Cfg2	Hfg1	0.08884
Cfg2	Hfg2	0.08986
Cfg2	Hfg3	0.10579
Hfg1	Hfg2	0.14311
Hfg1	Hfg3	0.15599
Hfg2	Hfg3	0.15899
Cfg3	Hfg4	0.10593
Cfg3	Hfg5	0.08954
Cfg3	Hfg6	0.09439
Hfg4	Hfg5	0.15930
Hfg4	Hfg6	0.16811
Hfg5	Hfg6	0.14344
Cfg4	Hfg7	0.08883
Cfg4	Hfg8	0.10026
Cfg4	Hfg9	0.08953
Hfg7	Hfg8	0.14854
Hfg7	Hfg9	0.14421
Hfg8	Hfg9	0.14639
Cfg5	Cfg6	0.13741
Cfg5	Cfg7	0.14517
Cfg5	Cfg8	0.12416
Cfg6	Hfg10	0.10571
Cfg6	Hfg11	0.08983
Cfg6	Hfg12	0.08884
Hfg10	Hfg11	0.15882
Hfg10	Hfg12	0.15585
Hfg11	Hfg12	0.14311
Cfg7	Hfg13	0.08883
Cfg7	Hfg14	0.08950
Cfg7	Hfg15	0.10037
Hfg13	Hfg14	0.14421
Hfg13	Hfg15	0.14869
Hfg14	Hfg15	0.14652
Cfg8	Hfg16	0.10586
Cfg8	Hfg17	0.09451
Cfg8	Hfg18	0.08951
Hfg16	Hfg17	0.16821
Hfg16	Hfg18	0.15913
Hfg17	Hfg18	0.14354
Cfg9	Cfg10	0.13754
Cfg9	Cfg11	0.14552
Cfg9	Cfg12	0.12493
Cfg10	Hfg19	0.10607
Cfg10	Hfg20	0.08921
Cfg10	Hfg21	0.08905
Hfg19	Hfg20	0.15676
Hfg19	Hfg21	0.15831
Hfg20	Hfg21	0.14258
Cfg11	Hfg22	0.08892
Cfg11	Hfg23	0.08901
Cfg11	Hfg24	0.10053
Hfg22	Hfg23	0.14368
Hfg22	Hfg24	0.14690
Hfg23	Hfg24	0.14812
Cfg12	Hfg25	0.10604
Cfg12	Hfg26	0.09408
Cfg12	Hfg27	0.08901
Hfg25	Hfg26	0.16776
Hfg25	Hfg27	0.15703
Hfg26	Hfg27	0.14434
Cfg13	Cfg14	0.13173
Cfg13	Cfg15	0.12814
Cfg13	Cfg16	0.13818
Cfg14	Hfg28	0.09304
Cfg14	Hfg29	0.09951
Cfg14	Hfg30	0.09646
Hfg28	Hfg29	0.14358
Hfg28	Hfg30	0.15878
Hfg29	Hfg30	0.16461
Cfg15	Hfg31	0.09670
Cfg15	Hfg32	0.09971
Cfg15	Hfg33	0.09336
Hfg31	Hfg32	0.16619
Hfg31	Hfg33	0.13979
Hfg32	Hfg33	0.16151
Cfg16	Hfg34	0.09230
Cfg16	Hfg35	0.08916
Cfg16	Hfg36	0.09966
Hfg34	Hfg35	0.14617
Hfg34	Hfg36	0.14506
Hfg35	Hfg36	0.15471
Cfg17	Cfg18	0.13052
Cfg17	Cfg19	0.13852
Cfg17	Cfg20	0.12628
Cfg18	Hfg37	0.09676
Cfg18	Hfg38	0.10135
Cfg18	Hfg39	0.09143
Hfg37	Hfg38	0.16701
Hfg37	Hfg39	0.15667
Hfg38	Hfg39	0.14511
Cfg19	Hfg40	0.09082
Cfg19	Hfg41	0.10142
Cfg19	Hfg42	0.08867
Hfg40	Hfg41	0.14677
Hfg40	Hfg42	0.14383
Hfg41	Hfg42	0.15518
Cfg20	Hfg43	0.09712
Cfg20	Hfg44	0.09208
Cfg20	Hfg45	0.10148
Hfg43	Hfg44	0.14007
Hfg43	Hfg45	0.16865
Hfg44	Hfg45	0.16147
Cfg21	Cfg22	0.13741
Cfg21	Cfg23	0.12416
Cfg21	Cfg24	0.14516
Cfg22	Hfg46	0.08884
Cfg22	Hfg47	0.08983
Cfg22	Hfg48	0.10571
Hfg46	Hfg47	0.14311
Hfg46	Hfg48	0.15585
Hfg47	Hfg48	0.15882
Cfg23	Hfg49	0.10586
Cfg23	Hfg50	0.08951
Cfg23	Hfg51	0.09451
Hfg49	Hfg50	0.15913
Hfg49	Hfg51	0.16821
Hfg50	Hfg51	0.14354
Cfg24	Hfg52	0.08883
Cfg24	Hfg53	0.10037
Cfg24	Hfg54	0.08950
Hfg52	Hfg53	0.14869
Hfg52	Hfg54	0.14421
Hfg53	Hfg54	0.14652
Cfg25	Cfg26	0.13754
Cfg25	Cfg27	0.12493
Cfg26	Hfg55	0.08905
Cfg26	Hfg56	0.08921
Cfg26	Hfg57	0.10607
Hfg55	Hfg56	0.14258
Hfg55	Hfg57	0.15830
Hfg56	Hfg57	0.15676
Cfg27	Hfg58	0.10604
Cfg27	Hfg59	0.08901
Cfg27	Hfg60	0.09408
Hfg58	Hfg59	0.15703
Hfg58	Hfg60	0.16776
Hfg59	Hfg60	0.14434
