data_NiPyC2_relax_sc211_NiPyC2_relax_sc211_aligned_CH2-NH2_NiPyC2_relax_sc211_aligned_CH2-NH2_NiPyC2_relax_sc211_aligned_CH2-NH2_NiPyC2_relax_sc211_aligned_CH2-NH2_NiPyC2_relax_sc211_aligned_CH2-NH2_NiPyC2_relax_sc211_aligned_CH2-NH2_NiPyC2_relax_sc211_aligned_CH2-NH2_NiPyC2_relax_sc211_aligned_CH2-NH2_PM
_symmetry_space_group_name_H-M	'P1'
_cell_length_a	12.505600
_cell_length_b	12.523400
_cell_length_c	10.276800
_cell_angle_alpha	90.000000
_cell_angle_beta	91.269000
_cell_angle_gamma	90.000000
_symmetry_Int_Tables_number 1

loop_
_symmetry_equiv_pos_as_xyz
'x,y,z'

loop_
_atom_site_label
_atom_site_type_symbol
_atom_site_fract_x
_atom_site_fract_y
_atom_site_fract_z
Ni1	Ni	0.247002	0.751486	0.836326
Ni2	Ni	0.499972	0.247999	0.339178
O1	O	0.122778	0.347689	0.382873
O2	O	0.371208	0.650977	0.881292
O3	O	0.377630	0.147507	0.377178
O4	O	0.125098	0.852352	0.876261
O5	O	0.473069	0.356160	0.482994
O6	O	0.221137	0.641415	0.979877
O7	O	0.028840	0.135158	0.481078
O8	O	0.276686	0.862758	0.979399
N1	N	0.308437	0.851253	0.704828
N2	N	0.060729	0.148857	0.206052
N3	N	0.186542	0.650310	0.705838
N4	N	0.438810	0.350928	0.208041
C1	C	0.288212	0.970050	0.521984
C2	C	0.038379	0.031106	0.022308
H1	H	0.237124	0.999575	0.443113
H2	H	0.486538	0.002692	0.943499
C3	C	0.390634	0.011770	0.546492
C4	C	0.140244	0.987744	0.046146
C5	C	0.451915	0.970202	0.650371
C6	C	0.202520	0.028353	0.149893
H3	H	0.032063	0.998805	0.673520
H4	H	0.282340	0.998665	0.172602
C7	C	0.208181	0.529704	0.526384
C8	C	0.458545	0.471409	0.027904
H5	H	0.258700	0.500895	0.449282
H6	H	0.008641	0.500397	0.950548
C9	C	0.245137	0.613331	0.606435
C10	C	0.496819	0.388677	0.108617
H7	H	0.322641	0.650506	0.592635
C11	C	0.249476	0.889206	0.603203
C12	C	0.001069	0.112232	0.104247
H8	H	0.170154	0.855123	0.588560
C13	C	0.407977	0.889383	0.727552
C14	C	0.159935	0.109547	0.227812
C15	C	0.088862	0.608983	0.727352
C16	C	0.340890	0.391633	0.229394
H9	H	0.296378	0.357526	0.309051
C17	C	0.046925	0.525079	0.651312
C18	C	0.297658	0.474711	0.152754
H10	H	0.468672	0.493231	0.673502
H11	H	0.218952	0.505201	0.175264
C19	C	0.108164	0.484270	0.550116
C20	C	0.357832	0.515656	0.050638
C21	C	0.433310	0.099319	0.466621
C22	C	0.181517	0.899720	0.965672
C23	C	0.067378	0.394474	0.470676
C24	C	0.316043	0.604172	0.969107
Ni3	Ni	0.747002	0.751486	0.836326
Ni4	Ni	0.999972	0.247999	0.339178
O9	O	0.622779	0.347689	0.382873
O10	O	0.871208	0.650977	0.881292
O11	O	0.877630	0.147507	0.377178
O12	O	0.625098	0.852352	0.876261
O13	O	0.973069	0.356160	0.482994
O14	O	0.721137	0.641415	0.979877
O15	O	0.528840	0.135158	0.481078
O16	O	0.776686	0.862758	0.979399
N5	N	0.808437	0.851253	0.704828
N6	N	0.560729	0.148857	0.206052
N7	N	0.686543	0.650310	0.705838
N8	N	0.938810	0.350928	0.208041
C25	C	0.788212	0.970050	0.521984
C26	C	0.538379	0.031106	0.022308
H12	H	0.737124	0.999575	0.443113
H13	H	0.986538	0.002692	0.943499
C27	C	0.890634	0.011770	0.546492
C28	C	0.640244	0.987744	0.046146
C29	C	0.951915	0.970202	0.650371
C30	C	0.702520	0.028353	0.149893
H14	H	0.532062	0.998805	0.673520
H15	H	0.782340	0.998665	0.172602
C31	C	0.708182	0.529704	0.526384
C32	C	0.958546	0.471409	0.027904
H16	H	0.758700	0.500895	0.449282
H17	H	0.508641	0.500397	0.950548
C33	C	0.745137	0.613331	0.606435
C34	C	0.996819	0.388677	0.108617
C35	C	0.749476	0.889206	0.603203
C36	C	0.501069	0.112232	0.104247
H18	H	0.670154	0.855123	0.588560
H19	H	0.922322	0.147732	0.089886
C37	C	0.907977	0.889383	0.727552
C38	C	0.659934	0.109547	0.227812
H20	H	0.706240	0.143103	0.308797
C39	C	0.588862	0.608983	0.727352
C40	C	0.840890	0.391633	0.229394
H21	H	0.543729	0.642944	0.806608
H22	H	0.796378	0.357526	0.309051
C41	C	0.546925	0.525079	0.651312
C42	C	0.797658	0.474711	0.152754
H23	H	0.968672	0.493231	0.673502
H24	H	0.718952	0.505201	0.175264
C43	C	0.608164	0.484270	0.550116
C44	C	0.857832	0.515656	0.050638
C45	C	0.933310	0.099319	0.466621
C46	C	0.681517	0.899720	0.965672
C47	C	0.567377	0.394474	0.470676
C48	C	0.816043	0.604172	0.969107
Cfg1	Cfg	0.476793	0.842232	0.842831
Nfg1	Nfg	0.420501	0.760220	0.915907
Hfg1	Hfg	0.499999	0.907337	0.911462
Hfg2	Hfg	0.549968	0.805538	0.802708
Hfg3	Hfg	0.357908	0.796083	0.965803
Hfg4	Hfg	0.473312	0.728602	0.986189
Cfg2	Cfg	0.229713	0.155171	0.343145
Nfg2	Nfg	0.176144	0.240135	0.414330
Hfg5	Hfg	0.305605	0.187918	0.305200
Hfg6	Hfg	0.248081	0.089265	0.412540
Hfg7	Hfg	0.168686	0.307218	0.354092
Hfg8	Hfg	0.224994	0.262243	0.493725
Cfg3	Cfg	0.020474	0.655719	0.839333
Nfg3	Nfg	0.074906	0.741271	0.911427
Hfg9	Hfg	0.001039	0.591159	0.909291
Hfg10	Hfg	0.945190	0.688763	0.796234
Hfg11	Hfg	0.139759	0.708846	0.963999
Hfg12	Hfg	0.022181	0.772231	0.979404
Cfg4	Cfg	0.608875	0.339041	0.082511
Nfg4	Nfg	0.638816	0.255157	0.175330
Hfg13	Hfg	0.670985	0.402555	0.088201
Hfg14	Hfg	0.607242	0.303534	0.983368
Hfg15	Hfg	0.651943	0.289632	0.267059
Hfg16	Hfg	0.711526	0.222037	0.147286
Cfg5	Cfg	0.976793	0.842232	0.842831
Nfg5	Nfg	0.920501	0.760220	0.915907
Hfg17	Hfg	0.999999	0.907337	0.911462
Hfg18	Hfg	0.049968	0.805538	0.802708
Hfg19	Hfg	0.857908	0.796083	0.965803
Hfg20	Hfg	0.973312	0.728602	0.986189
Cfg6	Cfg	0.388028	0.161348	0.076584
Nfg6	Nfg	0.359243	0.243430	0.170734
Hfg21	Hfg	0.326546	0.097239	0.079195
Hfg22	Hfg	0.387382	0.198498	0.978349
Hfg23	Hfg	0.348236	0.207339	0.261299
Hfg24	Hfg	0.285681	0.276400	0.141722
Cfg7	Cfg	0.856165	0.664917	0.579817
Nfg7	Nfg	0.884720	0.749634	0.672116
Hfg25	Hfg	0.919436	0.602563	0.585680
Hfg26	Hfg	0.853709	0.700064	0.480487
Hfg27	Hfg	0.898635	0.715704	0.763996
Hfg28	Hfg	0.956758	0.783980	0.643702
Cfg8	Cfg	0.108875	0.339040	0.082511
Nfg8	Nfg	0.138815	0.255156	0.175330
Hfg29	Hfg	0.170985	0.402553	0.088202
Hfg30	Hfg	0.107242	0.303533	0.983368
Hfg31	Hfg	0.151942	0.289631	0.267059
Hfg32	Hfg	0.211525	0.222036	0.147286

loop_
_geom_bond_atom_site_label_1
_geom_bond_atom_site_label_2
_geom_bond_distance
Ni1	O2	0.16599
Ni1	O4	0.16318
Ni1	O6	0.18273
Ni1	O8	0.18366
Ni1	N1	0.17612
Ni1	N3	0.17584
Ni2	O3	0.16282
Ni2	O5	0.18195
Ni2	N4	0.17757
Ni2	O9	0.16410
Ni2	O15	0.18358
Ni2	N6	0.17676
O1	C23	0.11387
O1	Ni4	0.16410
O2	C24	0.11378
O3	C21	0.11586
O4	C22	0.11585
O5	C47	0.10254
O6	C24	0.10252
O7	Ni4	0.18358
O7	C45	0.10305
O8	C22	0.10301
N1	C11	0.12347
N1	C13	0.10899
N2	C12	0.12355
N2	C14	0.10891
N2	Ni4	0.17676
N3	C9	0.12117
N3	C15	0.10822
N4	C10	0.12114
N4	C16	0.10817
C1	H1	0.09850
C1	C3	0.11328
C1	C11	0.12097
C2	C4	0.11325
C2	C12	0.12119
C2	H13	0.09852
H2	C26	0.09852
C3	C5	0.12757
C3	C21	0.12596
C4	C6	0.12764
C4	C22	0.12621
C5	C13	0.12008
C5	H14	0.08819
C6	H4	0.08814
C6	C14	0.12032
H3	C29	0.08819
C7	H5	0.09658
C7	C9	0.12152
C7	C19	0.11239
C8	C10	0.12175
C8	C20	0.11233
C8	H17	0.09661
H6	C32	0.09661
C9	H7	0.08706
C10	Cfg4	0.12531
C11	H8	0.08757
C12	H19	0.08756
C13	Cfg1	0.14230
C14	Cfg2	0.14231
C15	C17	0.12075
C15	Cfg3	0.13929
C16	H9	0.09742
C16	C18	0.12102
C17	C19	0.12512
C17	H23	0.08735
C18	H11	0.08736
C18	C20	0.12540
H10	C41	0.08735
C19	C23	0.12664
C20	C24	0.12739
C21	O15	0.10305
C23	O13	0.10254
Ni3	O10	0.16599
Ni3	O12	0.16318
Ni3	O14	0.18273
Ni3	O16	0.18366
Ni3	N5	0.17612
Ni3	N7	0.17584
Ni4	O11	0.16282
Ni4	O13	0.18195
Ni4	N8	0.17757
O9	C47	0.11388
O10	C48	0.11378
O11	C45	0.11586
O12	C46	0.11585
O14	C48	0.10252
O16	C46	0.10301
N5	C35	0.12347
N5	C37	0.10899
N6	C36	0.12355
N6	C38	0.10891
N7	C33	0.12117
N7	C39	0.10822
N8	C34	0.12114
N8	C40	0.10817
C25	H12	0.09850
C25	C27	0.11328
C25	C35	0.12097
C26	C28	0.11325
C26	C36	0.12119
C27	C29	0.12757
C27	C45	0.12596
C28	C30	0.12764
C28	C46	0.12621
C29	C37	0.12008
C30	H15	0.08814
C30	C38	0.12032
C31	H16	0.09658
C31	C33	0.12152
C31	C43	0.11239
C32	C34	0.12175
C32	C44	0.11233
C33	Cfg7	0.12529
C34	Cfg8	0.12531
C35	H18	0.08757
C36	Cfg6	0.12632
C37	Cfg5	0.14230
C38	H20	0.09914
C39	H21	0.09732
C39	C41	0.12075
C40	H22	0.09742
C40	C42	0.12102
C41	C43	0.12512
C42	H24	0.08736
C42	C44	0.12540
C43	C47	0.12664
C44	C48	0.12739
Cfg1	Nfg1	0.12343
Cfg1	Hfg1	0.09740
Cfg1	Hfg2	0.09116
Nfg1	Hfg3	0.08771
Nfg1	Hfg4	0.09342
Hfg1	Hfg2	0.15712
Hfg3	Hfg4	0.13523
Cfg2	Nfg2	0.12311
Cfg2	Hfg5	0.09095
Cfg2	Hfg6	0.09745
Nfg2	Hfg7	0.09047
Nfg2	Hfg8	0.09581
Hfg5	Hfg6	0.15673
Hfg7	Hfg8	0.15713
Cfg3	Nfg3	0.12442
Cfg3	Hfg9	0.09716
Cfg3	Hfg10	0.09283
Nfg3	Hfg11	0.08956
Nfg3	Hfg12	0.09143
Hfg9	Hfg10	0.15946
Hfg11	Hfg12	0.13446
Cfg4	Nfg4	0.12864
Cfg4	Hfg13	0.08902
Cfg4	Hfg14	0.10532
Nfg4	Hfg15	0.09887
Nfg4	Hfg16	0.08468
Hfg13	Hfg14	0.15767
Hfg15	Hfg16	0.14988
Cfg5	Nfg5	0.12343
Cfg5	Hfg17	0.09740
Cfg5	Hfg18	0.09116
Nfg5	Hfg19	0.08771
Nfg5	Hfg20	0.09342
Hfg17	Hfg18	0.15712
Hfg19	Hfg20	0.13523
Cfg6	Nfg6	0.12818
Cfg6	Hfg21	0.08886
Cfg6	Hfg22	0.10503
Nfg6	Hfg23	0.09811
Nfg6	Hfg24	0.08567
Hfg21	Hfg22	0.15532
Hfg23	Hfg24	0.15160
Cfg7	Nfg7	0.12850
Cfg7	Hfg25	0.08903
Cfg7	Hfg26	0.10539
Nfg7	Hfg27	0.09893
Nfg7	Hfg28	0.08471
Hfg25	Hfg26	0.15777
Hfg27	Hfg28	0.15003
Cfg8	Nfg8	0.12864
Cfg8	Hfg29	0.08902
Cfg8	Hfg30	0.10532
Nfg8	Hfg31	0.09887
Nfg8	Hfg32	0.08468
Hfg29	Hfg30	0.15767
Hfg31	Hfg32	0.14988
