data_NiPyC2_relax_meta_functionalized_OH_in_PM
_symmetry_space_group_name_H-M	'P1'
_cell_length_a	12.505617
_cell_length_b	12.523412
_cell_length_c	10.276810
_cell_angle_alpha	90.000000
_cell_angle_beta	91.268973
_cell_angle_gamma	90.000000
_symmetry_Int_Tables_number 1

loop_
_symmetry_equiv_pos_as_xyz
'x,y,z'

loop_
_atom_site_label
_atom_site_type_symbol
_atom_site_fract_x
_atom_site_fract_y
_atom_site_fract_z
Ni21	Ni2	0.250653	0.751031	0.836237
Ni11	Ni1	0.499022	0.246787	0.340031
O1	O	0.118904	0.366805	0.363185
O2	O	0.370206	0.652866	0.893049
O3	O	0.382408	0.144215	0.384763
O4	O	0.133323	0.861327	0.861421
O5	O	0.464884	0.358677	0.476750
O6	O	0.213002	0.634270	0.973437
O7	O	0.030751	0.142177	0.477547
O8	O	0.277950	0.858798	0.980899
N1	N	0.316819	0.845416	0.704529
N2	N	0.068595	0.154321	0.201397
N3	N	0.190828	0.656013	0.700770
N4	N	0.436820	0.345030	0.206810
C1	C	0.303438	0.966624	0.523340
C2	C	0.036921	0.019820	0.036445
H1	H	0.255337	0.997014	0.442217
H2	H	0.489475	-0.007262	0.958153
C3	C	0.403193	0.011045	0.552838
C4	C	0.146840	0.989842	0.040163
C5	C	0.462137	0.966815	0.660757
C6	C	0.212287	0.040660	0.132674
H3	H	0.295005	1.015998	0.146804
C7	C	0.208475	0.528802	0.527402
C8	C	0.454243	0.474056	0.035019
H4	H	0.261045	0.491121	0.458233
C9	C	0.250789	0.608467	0.608943
C10	C	0.494811	0.389913	0.111169
H5	H	0.333251	0.634970	0.603439
H6	H	0.076829	0.363789	0.102420
C11	C	0.262534	0.883600	0.598651
C12	C	0.003754	0.108044	0.113222
H7	H	0.185190	0.847838	0.577119
H8	H	0.419081	0.136775	0.100361
C13	C	0.413358	0.883684	0.734648
C14	C	0.171436	0.120517	0.213809
H9	H	0.455344	0.851173	0.819769
H10	H	0.220333	0.156727	0.290434
C15	C	0.088811	0.627958	0.712883
C16	C	0.338397	0.380423	0.228280
H11	H	0.042232	0.666524	0.787781
H12	H	0.294026	0.344188	0.306945
C17	C	0.040943	0.546304	0.635076
C18	C	0.291160	0.465306	0.154417
H13	H	0.450872	0.506899	0.647802
C19	C	0.102604	0.495027	0.538132
C20	C	0.351526	0.513771	0.053967
C21	C	0.442508	0.099838	0.473759
C22	C	0.186858	0.902198	0.959760
C23	C	0.062177	0.406943	0.456066
C24	C	0.310274	0.602065	0.972890
Ni22	Ni2	0.742222	0.755487	0.835132
Ni12	Ni1	0.999731	0.250040	0.331626
O9	O	0.617334	0.347531	0.382769
O10	O	0.860163	0.640667	0.853300
O11	O	0.883598	0.134268	0.363317
O12	O	0.628043	0.866231	0.873364
O13	O	0.971385	0.362448	0.469824
O14	O	0.719721	0.643372	0.972986
O15	O	0.536251	0.140091	0.483895
O16	O	0.780106	0.865458	0.979126
N5	N	0.808845	0.846768	0.697973
N6	N	0.559937	0.150857	0.210577
N7	N	0.669562	0.660144	0.700980
N8	N	0.931085	0.345890	0.194343
C25	C	0.795672	0.972246	0.520635
C26	C	0.541598	0.027643	0.032659
H14	H	0.744206	1.008088	0.446197
C27	C	0.900049	0.008548	0.541467
C28	C	0.646325	0.991408	0.050675
C29	C	0.960261	0.958782	0.645050
C30	C	0.708116	0.038112	0.154292
C31	C	0.704832	0.524916	0.538900
C32	C	0.960640	0.480185	0.029356
H15	H	0.504490	0.508924	0.961333
C33	C	0.733933	0.617006	0.613473
C34	C	0.995407	0.393225	0.109608
H16	H	0.811913	0.653395	0.600485
H17	H	0.574510	0.357728	0.098247
C35	C	0.752052	0.892122	0.598407
C36	C	0.500370	0.107347	0.112343
H18	H	0.670725	0.864099	0.583411
H19	H	0.922842	0.138758	0.101017
C37	C	0.910089	0.875914	0.718681
C38	C	0.660289	0.118612	0.231895
H20	H	0.954898	0.838678	0.798263
H21	H	0.705683	0.154419	0.312435
C39	C	0.569461	0.620484	0.713676
C40	C	0.827603	0.377653	0.200591
H22	H	0.520426	0.655124	0.788713
H23	H	0.779424	0.341309	0.274964
C41	C	0.531513	0.536559	0.634363
C42	C	0.785766	0.457395	0.117592
H24	H	0.702743	0.480979	0.127103
C43	C	0.597591	0.487603	0.544653
C44	C	0.850558	0.509501	0.029222
C45	C	0.940992	0.095991	0.460732
C46	C	0.687181	0.906594	0.967526
C47	C	0.559932	0.396369	0.466848
C48	C	0.809504	0.598913	0.949857
O17	O	0.557365	0.001085	0.695045
H25	H	0.584943	0.953475	0.768721
O18	O	0.968900	0.964462	0.965087
H26	H	0.894572	-0.030634	0.996092
O19	O	0.940349	0.520075	0.655593
H27	H	0.914201	0.562425	0.732404
O20	O	0.194218	0.497825	0.182244
H28	H	0.166646	0.451299	0.255429
O21	O	0.057889	-0.012568	0.675255
H29	H	0.084513	0.941584	0.751034
O22	O	0.806990	1.008110	0.180531
H30	H	0.836195	0.053528	0.256115
O23	O	0.775066	0.474306	0.469144
H31	H	0.847696	0.491753	0.502989
O24	O	0.026284	0.534687	0.957284
H32	H	0.101931	0.532520	0.988736
