data_NiPyC2_relax_NiPyC2_relax_aligned_O-CH2-CH2-CH3_NiPyC2_relax_aligned_O-CH2-CH2-CH3_NiPyC2_relax_aligned_O-CH2-CH2-CH3_NiPyC2_relax_aligned_O-CH2-CH2-CH3_NiPyC2_relax_aligned_O-CH2-CH2-CH3_NiPyC2_relax_aligned_O-CH2-CH2-CH3_NiPyC2_relax_aligned_O-CH2-CH2-CH3_NiPyC2_relax_aligned_O-CH2-CH2-CH3_PM
_symmetry_space_group_name_H-M	'P1'
_cell_length_a	12.505600
_cell_length_b	12.523400
_cell_length_c	10.276800
_cell_angle_alpha	90.000000
_cell_angle_beta	91.269000
_cell_angle_gamma	90.000000
_symmetry_Int_Tables_number 1

loop_
_symmetry_equiv_pos_as_xyz
'x,y,z'

loop_
_atom_site_label
_atom_site_type_symbol
_atom_site_fract_x
_atom_site_fract_y
_atom_site_fract_z
Ni1	Ni	0.247002	0.751486	0.836326
Ni2	Ni	0.499972	0.247999	0.339178
O1	O	0.122778	0.347689	0.382873
O2	O	0.371208	0.650977	0.881292
O3	O	0.377630	0.147507	0.377178
O4	O	0.125098	0.852352	0.876261
O5	O	0.473069	0.356160	0.482994
O6	O	0.221137	0.641415	0.979877
O7	O	0.028840	0.135158	0.481078
O8	O	0.276686	0.862758	0.979399
N1	N	0.308437	0.851253	0.704828
N2	N	0.060729	0.148857	0.206052
N3	N	0.186542	0.650310	0.705838
N4	N	0.438810	0.350928	0.208041
C1	C	0.288212	0.970050	0.521984
C2	C	0.038379	0.031106	0.022308
H1	H	0.237124	0.999575	0.443113
C3	C	0.390634	0.011770	0.546492
C4	C	0.140244	0.987744	0.046146
C5	C	0.451915	0.970202	0.650371
C6	C	0.202520	0.028353	0.149893
H2	H	0.032063	0.998805	0.673520
C7	C	0.208181	0.529704	0.526384
C8	C	0.458545	0.471409	0.027904
H3	H	0.008641	0.500397	0.950548
C9	C	0.245137	0.613331	0.606435
C10	C	0.496819	0.388677	0.108617
H4	H	0.322641	0.650506	0.592635
H5	H	0.074968	0.352851	0.095028
C11	C	0.249476	0.889206	0.603203
C12	C	0.001069	0.112232	0.104247
H6	H	0.170154	0.855123	0.588560
H7	H	0.422322	0.147732	0.089886
C13	C	0.407977	0.889383	0.727552
C14	C	0.159935	0.109547	0.227812
H8	H	0.453370	0.855173	0.808761
H9	H	0.206239	0.143103	0.308797
C15	C	0.088862	0.608983	0.727352
C16	C	0.340890	0.391633	0.229394
H10	H	0.043729	0.642944	0.806608
H11	H	0.296378	0.357526	0.309051
C17	C	0.046925	0.525079	0.651312
C18	C	0.297658	0.474711	0.152754
H12	H	0.468672	0.493231	0.673502
C19	C	0.108164	0.484270	0.550116
C20	C	0.357832	0.515656	0.050638
C21	C	0.433310	0.099319	0.466621
C22	C	0.181517	0.899720	0.965672
C23	C	0.067378	0.394474	0.470676
C24	C	0.316043	0.604172	0.969107
Ni3	Ni	0.747002	0.751486	0.836326
Ni4	Ni	0.999972	0.247999	0.339178
O9	O	0.622779	0.347689	0.382873
O10	O	0.871208	0.650977	0.881292
O11	O	0.877630	0.147507	0.377178
O12	O	0.625098	0.852352	0.876261
O13	O	0.973069	0.356160	0.482994
O14	O	0.721137	0.641415	0.979877
O15	O	0.528840	0.135158	0.481078
O16	O	0.776686	0.862758	0.979399
N5	N	0.808437	0.851253	0.704828
N6	N	0.560729	0.148857	0.206052
N7	N	0.686543	0.650310	0.705838
N8	N	0.938810	0.350928	0.208041
C25	C	0.788212	0.970050	0.521984
C26	C	0.538379	0.031106	0.022308
H13	H	0.986538	0.002692	0.943499
C27	C	0.890634	0.011770	0.546492
C28	C	0.640244	0.987744	0.046146
C29	C	0.951915	0.970202	0.650371
C30	C	0.702520	0.028353	0.149893
H14	H	0.782340	0.998665	0.172602
C31	C	0.708182	0.529704	0.526384
C32	C	0.958546	0.471409	0.027904
H15	H	0.508641	0.500397	0.950548
C33	C	0.745137	0.613331	0.606435
C34	C	0.996819	0.388677	0.108617
H16	H	0.822641	0.650506	0.592635
H17	H	0.574968	0.352851	0.095028
C35	C	0.749476	0.889206	0.603203
C36	C	0.501069	0.112232	0.104247
H18	H	0.670154	0.855123	0.588560
H19	H	0.922322	0.147732	0.089886
C37	C	0.907977	0.889383	0.727552
C38	C	0.659934	0.109547	0.227812
H20	H	0.953370	0.855173	0.808761
H21	H	0.706240	0.143103	0.308797
C39	C	0.588862	0.608983	0.727352
C40	C	0.840890	0.391633	0.229394
H22	H	0.543729	0.642944	0.806608
H23	H	0.796378	0.357526	0.309051
C41	C	0.546925	0.525079	0.651312
C42	C	0.797658	0.474711	0.152754
H24	H	0.968672	0.493231	0.673502
C43	C	0.608164	0.484270	0.550116
C44	C	0.857832	0.515656	0.050638
C45	C	0.933310	0.099319	0.466621
C46	C	0.681517	0.899720	0.965672
C47	C	0.567377	0.394474	0.470676
C48	C	0.816043	0.604172	0.969107
O17	O	0.552643	1.008518	0.674916
C49	C	0.621343	0.974809	0.773718
C50	C	0.725775	1.037674	0.767431
H25	H	0.638547	0.888225	0.761943
H26	H	0.584137	0.988942	0.869540
C51	C	0.804578	1.003286	0.874905
H27	H	0.708635	1.124299	0.778187
H28	H	0.762664	1.024286	0.671347
H29	H	0.770024	1.017451	0.972057
H30	H	0.879505	1.050293	0.867783
H31	H	0.824183	0.917194	0.864960
O18	O	0.302867	-0.011240	0.173576
C52	C	0.372427	0.021386	0.272042
C53	C	0.476039	-0.042722	0.264774
H32	H	0.335508	0.007463	0.368080
H33	H	0.390630	0.107784	0.260489
C54	C	0.555753	-0.009554	0.371838
H34	H	0.512629	-0.029545	0.168473
H35	H	0.457894	-0.129160	0.275313
H36	H	0.576361	0.076319	0.362086
H37	H	0.630055	-0.057447	0.364005
H38	H	0.521492	-0.023537	0.469188
O19	O	0.267857	0.492183	0.426341
C55	C	0.367350	0.529528	0.392280
C56	C	0.406474	0.466349	0.275435
H39	H	0.424889	0.519114	0.475437
H40	H	0.361677	0.615546	0.365951
C57	C	0.516398	0.504696	0.233921
H41	H	0.348646	0.476004	0.192536
H42	H	0.411417	0.380251	0.301255
H43	H	0.513053	0.590289	0.205733
H44	H	0.542598	0.457366	0.149004
H45	H	0.575978	0.494304	0.314717
O20	O	0.198735	0.515827	0.176044
C58	C	0.131300	0.483068	0.272958
C59	C	0.028702	0.549200	0.265804
H46	H	0.171160	0.494885	0.369749
H47	H	0.111136	0.397208	0.259321
C60	C	-0.048657	0.515963	0.371180
H48	H	-0.010822	0.538126	0.168770
H49	H	0.048781	0.635116	0.278427
H50	H	-0.071166	0.430647	0.359327
H51	H	-0.122268	0.565345	0.363470
H52	H	-0.011418	0.527870	0.469252
O21	O	0.727714	1.008474	0.419797
C61	C	0.625927	0.974779	0.384620
C62	C	0.586703	1.037704	0.265512
H53	H	0.570819	0.988866	0.466389
H54	H	0.627398	0.888208	0.360413
C63	C	0.474275	1.003326	0.222697
H55	H	0.642138	1.024367	0.183990
H56	H	0.585953	1.124317	0.289223
H57	H	0.473392	0.917248	0.196575
H58	H	0.448060	1.050378	0.136147
H59	H	0.417069	1.017439	0.302064
O22	O	0.477038	-0.005978	-0.079868
C64	C	0.375680	0.029369	-0.114404
C65	C	0.335194	-0.032466	-0.233771
H60	H	0.378381	0.116010	-0.138050
H61	H	0.320596	0.015756	-0.032496
C66	C	0.223182	0.003747	-0.275889
H62	H	0.333216	-0.119157	-0.210630
H63	H	0.390594	-0.019604	-0.315442
H64	H	0.165997	-0.009859	-0.196372
H65	H	0.196031	-0.042546	-0.362647
H66	H	0.223512	0.089938	-0.301438
O23	O	0.767857	0.492183	0.426341
C67	C	0.867350	0.529528	0.392280
C68	C	0.906474	0.466349	0.275435
H67	H	0.924889	0.519114	0.475437
H68	H	0.861677	0.615546	0.365951
C69	C	1.016398	0.504696	0.233921
H69	H	0.848646	0.476004	0.192536
H70	H	0.911417	0.380251	0.301255
H71	H	1.013053	0.590289	0.205733
H72	H	1.042598	0.457366	0.149004
H73	H	1.075978	0.494304	0.314717
O24	O	0.698735	0.515827	0.176044
C70	C	0.631300	0.483068	0.272958
C71	C	0.528702	0.549200	0.265804
H74	H	0.671160	0.494885	0.369749
H75	H	0.611136	0.397208	0.259321
C72	C	0.451343	0.515963	0.371180
H76	H	0.489178	0.538126	0.168770
H77	H	0.548781	0.635116	0.278427
H78	H	0.428834	0.430647	0.359327
H79	H	0.377732	0.565345	0.363470
H80	H	0.488582	0.527870	0.469252

loop_
_geom_bond_atom_site_label_1
_geom_bond_atom_site_label_2
_geom_bond_distance
Ni1	O2	0.16599
Ni1	O4	0.16318
Ni1	O6	0.18273
Ni1	O8	0.18366
Ni1	N1	0.17612
Ni1	N3	0.17584
Ni2	O3	0.16282
Ni2	O5	0.18195
Ni2	N4	0.17757
Ni2	O9	0.16410
Ni2	O15	0.18358
Ni2	N6	0.17676
O1	C23	0.11387
O1	Ni4	0.16410
O2	C24	0.11378
O3	C21	0.11585
O4	C22	0.11585
O5	C47	0.10254
O6	C24	0.10252
O7	Ni4	0.18358
O7	C45	0.10305
O8	C22	0.10301
N1	C11	0.12347
N1	C13	0.10899
N2	C12	0.12355
N2	C14	0.10891
N2	Ni4	0.17676
N3	C9	0.12117
N3	C15	0.10822
N4	C10	0.12114
N4	C16	0.10817
C1	H1	0.09850
C1	C3	0.11328
C1	C11	0.12097
C2	C4	0.11325
C2	C12	0.12119
C2	H13	0.09852
C3	C5	0.12757
C3	C21	0.12596
C4	C6	0.12764
C4	C22	0.12621
C5	C13	0.12008
C5	O17	0.11053
C6	C14	0.12032
C6	O18	0.11044
H2	C29	0.08819
C7	C9	0.12152
C7	C19	0.11239
C7	O19	0.12238
C8	C10	0.12175
C8	C20	0.11233
C8	H15	0.09661
H3	C32	0.09661
C9	H4	0.08706
C10	H17	0.08704
H5	C34	0.08704
C11	H6	0.08757
C12	H19	0.08756
H7	C36	0.08756
C13	H8	0.09912
C14	H9	0.09914
C15	H10	0.09732
C15	C17	0.12075
C16	H11	0.09742
C16	C18	0.12102
C17	C19	0.12512
C17	H24	0.08735
C18	C20	0.12540
C18	O20	0.10963
H12	C41	0.08735
C19	C23	0.12664
C20	C24	0.12739
C21	O15	0.10305
C23	O13	0.10254
Ni3	O10	0.16599
Ni3	O12	0.16318
Ni3	O14	0.18273
Ni3	O16	0.18366
Ni3	N5	0.17612
Ni3	N7	0.17584
Ni4	O11	0.16282
Ni4	O13	0.18195
Ni4	N8	0.17757
O9	C47	0.11387
O10	C48	0.11378
O11	C45	0.11585
O12	C46	0.11585
O14	C48	0.10252
O16	C46	0.10301
N5	C35	0.12347
N5	C37	0.10899
N6	C36	0.12355
N6	C38	0.10891
N7	C33	0.12117
N7	C39	0.10822
N8	C34	0.12114
N8	C40	0.10817
C25	C27	0.11328
C25	C35	0.12097
C25	O21	0.12481
C26	C28	0.11325
C26	C36	0.12119
C26	O22	0.12481
C27	C29	0.12757
C27	C45	0.12596
C28	C30	0.12764
C28	C46	0.12621
C29	C37	0.12008
C30	H14	0.08814
C30	C38	0.12032
C31	C33	0.12152
C31	C43	0.11239
C31	O23	0.12238
C32	C34	0.12175
C32	C44	0.11233
C33	H16	0.08706
C35	H18	0.08757
C37	H20	0.09912
C38	H21	0.09914
C39	H22	0.09732
C39	C41	0.12075
C40	H23	0.09742
C40	C42	0.12102
C41	C43	0.12512
C42	C44	0.12540
C42	O24	0.10963
C43	C47	0.12664
C44	C48	0.12739
O17	C49	0.12497
C49	C50	0.12206
C49	H25	0.08906
C49	H26	0.10376
C50	C51	0.13763
C50	H27	0.08896
C50	H28	0.10379
C51	H29	0.10408
C51	H30	0.08874
C51	H31	0.08885
O18	C52	0.12489
C52	C53	0.12206
C52	H32	0.10383
C52	H33	0.08905
C53	C54	0.13754
C53	H34	0.10386
C53	H35	0.08895
C54	H36	0.08885
C54	H37	0.08875
C54	H38	0.10415
O19	C55	0.11160
C55	C56	0.13847
C55	H39	0.10166
C55	H40	0.09014
C56	C57	0.12360
C56	H41	0.10154
C56	H42	0.09002
C57	H43	0.09018
C57	H44	0.10069
C57	H45	0.10092
O20	C58	0.12253
C58	C59	0.12227
C58	H46	0.10534
C58	H47	0.08924
C59	C60	0.13488
C59	H48	0.10536
C59	H49	0.08913
C60	H50	0.08903
C60	H51	0.08898
C60	H52	0.10558
O21	C61	0.11284
C61	C62	0.14030
C61	H53	0.09961
C61	H54	0.08990
C62	C63	0.12512
C62	H55	0.09948
C62	H56	0.08980
C63	H57	0.08996
C63	H58	0.10194
C63	H59	0.09885
O22	C64	0.11276
C64	C65	0.14040
C64	H60	0.08985
C64	H61	0.09964
C65	C66	0.12503
C65	H62	0.08975
C65	H63	0.09952
C66	H64	0.09889
C66	H65	0.10202
C66	H66	0.08990
O23	C67	0.11160
C67	C68	0.13847
C67	H67	0.10166
C67	H68	0.09014
C68	C69	0.12360
C68	H69	0.10154
C68	H70	0.09002
C69	H71	0.09018
C69	H72	0.10069
C69	H73	0.10092
O24	C70	0.12253
C70	C71	0.12227
C70	H74	0.10534
C70	H75	0.08924
C71	C72	0.13488
C71	H76	0.10536
