data_NiPyC2_relax_NiPyC2_relax_aligned_N-2CH3_NiPyC2_relax_aligned_N-2CH3_NiPyC2_relax_aligned_N-2CH3_NiPyC2_relax_aligned_N-2CH3_NiPyC2_relax_aligned_N-2CH3_NiPyC2_relax_aligned_N-2CH3_NiPyC2_relax_aligned_N-2CH3_NiPyC2_relax_aligned_N-2CH3_PM
_symmetry_space_group_name_H-M	'P1'
_cell_length_a	12.505600
_cell_length_b	12.523400
_cell_length_c	10.276800
_cell_angle_alpha	90.000000
_cell_angle_beta	91.269000
_cell_angle_gamma	90.000000
_symmetry_Int_Tables_number 1

loop_
_symmetry_equiv_pos_as_xyz
'x,y,z'

loop_
_atom_site_label
_atom_site_type_symbol
_atom_site_fract_x
_atom_site_fract_y
_atom_site_fract_z
Ni1	Ni	0.247002	0.751486	0.836326
Ni2	Ni	0.499972	0.247999	0.339178
O1	O	0.122778	0.347689	0.382873
O2	O	0.371208	0.650977	0.881292
O3	O	0.377630	0.147507	0.377178
O4	O	0.125098	0.852352	0.876261
O5	O	0.473069	0.356160	0.482994
O6	O	0.221137	0.641415	0.979877
O7	O	0.028840	0.135158	0.481078
O8	O	0.276686	0.862758	0.979399
N1	N	0.308437	0.851253	0.704828
N2	N	0.060729	0.148857	0.206052
N3	N	0.186542	0.650310	0.705838
N4	N	0.438810	0.350928	0.208041
C1	C	0.288212	0.970050	0.521984
C2	C	0.038379	0.031106	0.022308
H1	H	0.486538	0.002692	0.943499
C3	C	0.390634	0.011770	0.546492
C4	C	0.140244	0.987744	0.046146
C5	C	0.451915	0.970202	0.650371
C6	C	0.202520	0.028353	0.149893
H2	H	0.032063	0.998805	0.673520
H3	H	0.282340	0.998665	0.172602
C7	C	0.208181	0.529704	0.526384
C8	C	0.458545	0.471409	0.027904
H4	H	0.258700	0.500895	0.449282
C9	C	0.245137	0.613331	0.606435
C10	C	0.496819	0.388677	0.108617
H5	H	0.322641	0.650506	0.592635
H6	H	0.074968	0.352851	0.095028
C11	C	0.249476	0.889206	0.603203
C12	C	0.001069	0.112232	0.104247
H7	H	0.170154	0.855123	0.588560
H8	H	0.422322	0.147732	0.089886
C13	C	0.407977	0.889383	0.727552
C14	C	0.159935	0.109547	0.227812
H9	H	0.453370	0.855173	0.808761
H10	H	0.206239	0.143103	0.308797
C15	C	0.088862	0.608983	0.727352
C16	C	0.340890	0.391633	0.229394
H11	H	0.043729	0.642944	0.806608
H12	H	0.296378	0.357526	0.309051
C17	C	0.046925	0.525079	0.651312
C18	C	0.297658	0.474711	0.152754
C19	C	0.108164	0.484270	0.550116
C20	C	0.357832	0.515656	0.050638
C21	C	0.433310	0.099319	0.466621
C22	C	0.181517	0.899720	0.965672
C23	C	0.067378	0.394474	0.470676
C24	C	0.316043	0.604172	0.969107
Ni3	Ni	0.747002	0.751486	0.836326
Ni4	Ni	0.999972	0.247999	0.339178
O9	O	0.622779	0.347689	0.382873
O10	O	0.871208	0.650977	0.881292
O11	O	0.877630	0.147507	0.377178
O12	O	0.625098	0.852352	0.876261
O13	O	0.973069	0.356160	0.482994
O14	O	0.721137	0.641415	0.979877
O15	O	0.528840	0.135158	0.481078
O16	O	0.776686	0.862758	0.979399
N5	N	0.808437	0.851253	0.704828
N6	N	0.560729	0.148857	0.206052
N7	N	0.686543	0.650310	0.705838
N8	N	0.938810	0.350928	0.208041
C25	C	0.788212	0.970050	0.521984
C26	C	0.538379	0.031106	0.022308
C27	C	0.890634	0.011770	0.546492
C28	C	0.640244	0.987744	0.046146
C29	C	0.951915	0.970202	0.650371
C30	C	0.702520	0.028353	0.149893
H13	H	0.532062	0.998805	0.673520
C31	C	0.708182	0.529704	0.526384
C32	C	0.958546	0.471409	0.027904
H14	H	0.758700	0.500895	0.449282
H15	H	0.508641	0.500397	0.950548
C33	C	0.745137	0.613331	0.606435
C34	C	0.996819	0.388677	0.108617
H16	H	0.822641	0.650506	0.592635
H17	H	0.574968	0.352851	0.095028
C35	C	0.749476	0.889206	0.603203
C36	C	0.501069	0.112232	0.104247
H18	H	0.670154	0.855123	0.588560
H19	H	0.922322	0.147732	0.089886
C37	C	0.907977	0.889383	0.727552
C38	C	0.659934	0.109547	0.227812
H20	H	0.953370	0.855173	0.808761
H21	H	0.706240	0.143103	0.308797
C39	C	0.588862	0.608983	0.727352
C40	C	0.840890	0.391633	0.229394
H22	H	0.543729	0.642944	0.806608
H23	H	0.796378	0.357526	0.309051
C41	C	0.546925	0.525079	0.651312
C42	C	0.797658	0.474711	0.152754
H24	H	0.718952	0.505201	0.175264
C43	C	0.608164	0.484270	0.550116
C44	C	0.857832	0.515656	0.050638
C45	C	0.933310	0.099319	0.466621
C46	C	0.681517	0.899720	0.965672
C47	C	0.567377	0.394474	0.470676
C48	C	0.816043	0.604172	0.969107
N9	N	0.216422	0.008444	0.418398
C49	C	0.147613	0.935214	0.345409
H25	H	0.164597	0.850412	0.369331
H26	H	0.161103	0.945198	0.239680
H27	H	0.062390	0.952454	0.365315
C50	C	0.200800	0.122037	0.395586
H28	H	0.249863	0.171814	0.463350
H29	H	0.116003	0.143077	0.412684
H30	H	0.218588	0.142256	0.293087
N10	N	0.965745	0.994228	0.918777
C51	C	0.897867	0.068779	0.846533
H31	H	0.916198	0.153218	0.870932
H32	H	0.910921	0.059027	0.740680
H33	H	0.812451	0.052738	0.866673
C52	C	0.948342	0.880977	0.895298
H34	H	0.996821	0.830193	0.962548
H35	H	0.863288	0.861142	0.912605
H36	H	0.965545	0.860913	0.792592
N11	N	0.939625	0.488061	0.680135
C53	C	0.904234	0.479681	0.813617
H37	H	0.970038	0.494069	0.885678
H38	H	0.873914	0.397735	0.831243
H39	H	0.838958	0.537843	0.830675
C54	C	0.859761	0.471430	0.577120
H40	H	0.891489	0.488591	0.479337
H41	H	0.791836	0.527098	0.590938
H42	H	0.828179	0.388626	0.580959
N12	N	0.190086	0.510700	0.182147
C55	C	0.155323	0.519483	0.315850
H43	H	0.221661	0.506253	0.387520
H44	H	0.124178	0.601192	0.332978
H45	H	0.090810	0.460706	0.333959
C56	C	0.109501	0.525835	0.079612
H46	H	0.140892	0.508443	0.981720
H47	H	0.042295	0.469503	0.094480
H48	H	0.077012	0.608304	0.082955
N13	N	0.719393	0.003156	0.412832
C57	C	0.604259	0.012373	0.426630
H49	H	0.579452	0.001945	0.528843
H50	H	0.577894	0.093288	0.395568
H51	H	0.562709	0.951887	0.364717
C58	C	0.761103	0.014715	0.282614
H52	H	0.847981	0.997191	0.279533
H53	H	0.720807	0.956555	0.216342
H54	H	0.744467	0.096197	0.244603
N14	N	0.808698	0.988690	0.185547
C59	C	0.892531	0.060831	0.231405
H55	H	0.868693	0.145938	0.223046
H56	H	0.964500	0.050177	0.171390
H57	H	0.913912	0.043061	0.334639
C60	C	0.830804	0.874813	0.192737
H58	H	0.759486	0.825928	0.166733
H59	H	0.854026	0.853227	0.294286
H60	H	0.898449	0.853983	0.129268
N15	N	0.439625	0.488061	0.680135
C61	C	0.404234	0.479681	0.813617
H61	H	0.470038	0.494069	0.885678
H62	H	0.373914	0.397735	0.831243
H63	H	0.338958	0.537843	0.830675
C62	C	0.359761	0.471430	0.577120
H64	H	0.391489	0.488591	0.479337
H65	H	0.291836	0.527098	0.590938
H66	H	0.328179	0.388626	0.580959
N16	N	0.026056	0.503862	0.920796
C63	C	0.141710	0.509801	0.937397
H67	H	0.168331	0.497576	0.040025
H68	H	0.169637	0.590309	0.908257
H69	H	0.180335	0.448900	0.875444
C64	C	0.981988	0.517985	0.789786
H70	H	0.894581	0.502858	0.784419
H71	H	0.019333	0.459492	0.723484
H72	H	0.000059	0.599399	0.753482

loop_
_geom_bond_atom_site_label_1
_geom_bond_atom_site_label_2
_geom_bond_distance
Ni1	O2	0.16599
Ni1	O4	0.16318
Ni1	O6	0.18273
Ni1	O8	0.18366
Ni1	N1	0.17612
Ni1	N3	0.17584
Ni2	O3	0.16282
Ni2	O5	0.18195
Ni2	N4	0.17757
Ni2	O9	0.16410
Ni2	O15	0.18358
Ni2	N6	0.17676
O1	C23	0.11387
O1	Ni4	0.16410
O2	C24	0.11378
O3	C21	0.11585
O4	C22	0.11585
O5	C47	0.10254
O6	C24	0.10252
O7	Ni4	0.18358
O7	C45	0.10305
O8	C22	0.10301
N1	C11	0.12347
N1	C13	0.10899
N2	C12	0.12355
N2	C14	0.10891
N2	Ni4	0.17676
N3	C9	0.12117
N3	C15	0.10822
N4	C10	0.12114
N4	C16	0.10817
C1	C3	0.11328
C1	C11	0.12097
C1	N9	0.13175
C2	C4	0.11325
C2	C12	0.12119
C2	N10	0.13174
H1	C26	0.09852
C3	C5	0.12757
C3	C21	0.12596
C4	C6	0.12764
C4	C22	0.12621
C5	C13	0.12008
C5	H13	0.08819
C6	H3	0.08814
C6	C14	0.12032
H2	C29	0.08819
C7	H4	0.09658
C7	C9	0.12152
C7	C19	0.11239
C8	C10	0.12175
C8	C20	0.11233
C8	H15	0.09661
C9	H5	0.08706
C10	H17	0.08704
H6	C34	0.08704
C11	H7	0.08757
C12	H19	0.08756
H8	C36	0.08756
C13	H9	0.09912
C14	H10	0.09914
C15	H11	0.09732
C15	C17	0.12075
C16	H12	0.09742
C16	C18	0.12102
C17	C19	0.12512
C17	N11	0.11711
C18	C20	0.12540
C18	N12	0.11718
C19	C23	0.12664
C20	C24	0.12739
C21	O15	0.10305
C23	O13	0.10254
Ni3	O10	0.16599
Ni3	O12	0.16318
Ni3	O14	0.18273
Ni3	O16	0.18366
Ni3	N5	0.17612
Ni3	N7	0.17584
Ni4	O11	0.16282
Ni4	O13	0.18195
Ni4	N8	0.17757
O9	C47	0.11387
O10	C48	0.11378
O11	C45	0.11585
O12	C46	0.11585
O14	C48	0.10252
O16	C46	0.10301
N5	C35	0.12347
N5	C37	0.10899
N6	C36	0.12355
N6	C38	0.10891
N7	C33	0.12117
N7	C39	0.10822
N8	C34	0.12114
N8	C40	0.10817
C25	C27	0.11328
C25	C35	0.12097
C25	N13	0.13322
C26	C28	0.11325
C26	C36	0.12119
C27	C29	0.12757
C27	C45	0.12596
C28	C30	0.12764
C28	C46	0.12621
C29	C37	0.12008
C30	C38	0.12032
C30	N14	0.11882
C31	H14	0.09658
C31	C33	0.12152
C31	C43	0.11239
C32	C34	0.12175
C32	C44	0.11233
C32	N16	0.13070
C33	H16	0.08706
C35	H18	0.08757
C37	H20	0.09912
C38	H21	0.09914
C39	H22	0.09732
C39	C41	0.12075
C40	H23	0.09742
C40	C42	0.12102
C41	C43	0.12512
C41	N15	0.11711
C42	H24	0.08735
C42	C44	0.12540
C43	C47	0.12664
C44	C48	0.12739
N9	C49	0.12420
N9	C50	0.11691
C49	H25	0.08973
C49	H26	0.10705
C49	H27	0.08920
C50	H28	0.09735
C50	H29	0.08903
C50	H30	0.10598
N10	C51	0.12403
N10	C52	0.11696
C51	H31	0.08978
C51	H32	0.10710
C51	H33	0.08921
C52	H34	0.09722
C52	H35	0.08903
C52	H36	0.10605
N11	C53	0.13835
N11	C54	0.13140
C53	H37	0.09864
C53	H38	0.08914
C53	H39	0.08908
C54	H40	0.10422
C54	H41	0.08890
C54	H42	0.08870
N12	C55	0.13843
N12	C56	0.13129
C55	H43	0.09855
C55	H44	0.08911
C55	H45	0.08913
C56	H46	0.10426
C56	H47	0.08894
C56	H48	0.08870
N13	C57	0.11632
N13	C58	0.13722
C57	H49	0.10570
C57	H50	0.09059
C57	H51	0.09601
C58	H52	0.08868
C58	H53	0.09694
C58	H54	0.09144
N14	C59	0.11973
N14	C60	0.11623
C59	H55	0.08878
C59	H56	0.09431
C59	H57	0.10691
C60	H58	0.09029
C60	H59	0.10638
C60	H60	0.09507
N15	C61	0.13835
N15	C62	0.13140
C61	H61	0.09864
C61	H62	0.08914
C61	H63	0.08908
C62	H64	0.10422
C62	H65	0.08890
C62	H66	0.08870
N16	C63	0.11699
N16	C64	0.13894
C63	H67	0.10673
C63	H68	0.09006
C63	H69	0.09507
C64	H70	0.08887
C64	H71	0.09598
C64	H72	0.09096
