data_NiPyC2_relax_NiPyC2_relax_aligned_C-3CH3_NiPyC2_relax_aligned_C-3CH3_NiPyC2_relax_aligned_C-3CH3_NiPyC2_relax_aligned_C-3CH3_NiPyC2_relax_aligned_C-3CH3_NiPyC2_relax_aligned_C-3CH3_NiPyC2_relax_aligned_C-3CH3_NiPyC2_relax_aligned_C-3CH3_PM
_symmetry_space_group_name_H-M	'P1'
_cell_length_a	12.505600
_cell_length_b	12.523400
_cell_length_c	10.276800
_cell_angle_alpha	90.000000
_cell_angle_beta	91.269000
_cell_angle_gamma	90.000000
_symmetry_Int_Tables_number 1

loop_
_symmetry_equiv_pos_as_xyz
'x,y,z'

loop_
_atom_site_label
_atom_site_type_symbol
_atom_site_fract_x
_atom_site_fract_y
_atom_site_fract_z
Ni1	Ni	0.247002	0.751486	0.836326
Ni2	Ni	0.499972	0.247999	0.339178
O1	O	0.122778	0.347689	0.382873
O2	O	0.371208	0.650977	0.881292
O3	O	0.377630	0.147507	0.377178
O4	O	0.125098	0.852352	0.876261
O5	O	0.473069	0.356160	0.482994
O6	O	0.221137	0.641415	0.979877
O7	O	0.028840	0.135158	0.481078
O8	O	0.276686	0.862758	0.979399
N1	N	0.308437	0.851253	0.704828
N2	N	0.060729	0.148857	0.206052
N3	N	0.186542	0.650310	0.705838
N4	N	0.438810	0.350928	0.208041
C1	C	0.288212	0.970050	0.521984
C2	C	0.038379	0.031106	0.022308
H1	H	0.237124	0.999575	0.443113
C3	C	0.390634	0.011770	0.546492
C4	C	0.140244	0.987744	0.046146
C5	C	0.451915	0.970202	0.650371
C6	C	0.202520	0.028353	0.149893
H2	H	0.032063	0.998805	0.673520
C7	C	0.208181	0.529704	0.526384
C8	C	0.458545	0.471409	0.027904
H3	H	0.258700	0.500895	0.449282
H4	H	0.008641	0.500397	0.950548
C9	C	0.245137	0.613331	0.606435
C10	C	0.496819	0.388677	0.108617
H5	H	0.322641	0.650506	0.592635
H6	H	0.074968	0.352851	0.095028
C11	C	0.249476	0.889206	0.603203
C12	C	0.001069	0.112232	0.104247
H7	H	0.170154	0.855123	0.588560
H8	H	0.422322	0.147732	0.089886
C13	C	0.407977	0.889383	0.727552
C14	C	0.159935	0.109547	0.227812
H9	H	0.453370	0.855173	0.808761
H10	H	0.206239	0.143103	0.308797
C15	C	0.088862	0.608983	0.727352
C16	C	0.340890	0.391633	0.229394
H11	H	0.043729	0.642944	0.806608
H12	H	0.296378	0.357526	0.309051
C17	C	0.046925	0.525079	0.651312
C18	C	0.297658	0.474711	0.152754
H13	H	0.218952	0.505201	0.175264
C19	C	0.108164	0.484270	0.550116
C20	C	0.357832	0.515656	0.050638
C21	C	0.433310	0.099319	0.466621
C22	C	0.181517	0.899720	0.965672
C23	C	0.067378	0.394474	0.470676
C24	C	0.316043	0.604172	0.969107
Ni3	Ni	0.747002	0.751486	0.836326
Ni4	Ni	0.999972	0.247999	0.339178
O9	O	0.622779	0.347689	0.382873
O10	O	0.871208	0.650977	0.881292
O11	O	0.877630	0.147507	0.377178
O12	O	0.625098	0.852352	0.876261
O13	O	0.973069	0.356160	0.482994
O14	O	0.721137	0.641415	0.979877
O15	O	0.528840	0.135158	0.481078
O16	O	0.776686	0.862758	0.979399
N5	N	0.808437	0.851253	0.704828
N6	N	0.560729	0.148857	0.206052
N7	N	0.686543	0.650310	0.705838
N8	N	0.938810	0.350928	0.208041
C25	C	0.788212	0.970050	0.521984
C26	C	0.538379	0.031106	0.022308
H14	H	0.986538	0.002692	0.943499
C27	C	0.890634	0.011770	0.546492
C28	C	0.640244	0.987744	0.046146
C29	C	0.951915	0.970202	0.650371
C30	C	0.702520	0.028353	0.149893
H15	H	0.782340	0.998665	0.172602
C31	C	0.708182	0.529704	0.526384
C32	C	0.958546	0.471409	0.027904
H16	H	0.758700	0.500895	0.449282
C33	C	0.745137	0.613331	0.606435
C34	C	0.996819	0.388677	0.108617
H17	H	0.822641	0.650506	0.592635
H18	H	0.574968	0.352851	0.095028
C35	C	0.749476	0.889206	0.603203
C36	C	0.501069	0.112232	0.104247
H19	H	0.670154	0.855123	0.588560
H20	H	0.922322	0.147732	0.089886
C37	C	0.907977	0.889383	0.727552
C38	C	0.659934	0.109547	0.227812
H21	H	0.953370	0.855173	0.808761
H22	H	0.706240	0.143103	0.308797
C39	C	0.588862	0.608983	0.727352
C40	C	0.840890	0.391633	0.229394
H23	H	0.543729	0.642944	0.806608
H24	H	0.796378	0.357526	0.309051
C41	C	0.546925	0.525079	0.651312
C42	C	0.797658	0.474711	0.152754
C43	C	0.608164	0.484270	0.550116
C44	C	0.857832	0.515656	0.050638
C45	C	0.933310	0.099319	0.466621
C46	C	0.681517	0.899720	0.965672
C47	C	0.567377	0.394474	0.470676
C48	C	0.816043	0.604172	0.969107
C49	C	0.570577	0.007794	0.689631
C50	C	0.620064	0.947866	0.809667
H25	H	0.626702	0.860642	0.791208
H26	H	0.702380	0.976966	0.832760
H27	H	0.572493	0.960976	0.898417
C51	C	0.570639	0.126739	0.731882
H28	H	0.520633	0.136519	0.819203
H29	H	0.653115	0.153506	0.758015
H30	H	0.538464	0.184381	0.661297
C52	C	0.648386	0.982833	0.578112
H31	H	0.651022	0.895175	0.561320
H32	H	0.628735	0.017292	0.482757
H33	H	0.730756	0.009797	0.604456
C53	C	0.320873	0.989228	0.188173
C54	C	0.371635	0.048231	0.308135
H34	H	0.379248	0.135417	0.289999
H35	H	0.453685	0.018079	0.330539
H36	H	0.324325	0.035455	0.397166
C55	C	0.319682	0.870177	0.229921
H37	H	0.269971	0.860765	0.317555
H38	H	0.401936	0.842348	0.255375
H39	H	0.286486	0.813118	0.159307
C56	C	0.398455	0.013550	0.076212
H40	H	0.402080	0.101215	0.059772
H41	H	0.377947	0.979587	0.980836
H42	H	0.480600	0.985525	0.101876
C57	C	0.930674	0.483229	0.688371
C58	C	0.880821	0.543176	0.805489
H43	H	0.870180	0.629690	0.784515
H44	H	0.800195	0.511063	0.827181
H45	H	0.930489	0.533683	0.895852
C59	C	0.936379	0.365175	0.733810
H46	H	0.988315	0.359086	0.822719
H47	H	0.855548	0.335442	0.758475
H48	H	0.969712	0.307677	0.665624
C60	C	0.849882	0.502877	0.574120
H49	H	0.843252	0.590023	0.554908
H50	H	0.869282	0.467561	0.480210
H51	H	0.769170	0.472954	0.599004
C61	C	0.536115	0.508263	0.914240
C62	C	0.643767	0.445459	0.910952
H52	H	0.691505	0.456296	0.002590
H53	H	0.694487	0.474092	0.830483
H54	H	0.630250	0.358743	0.894065
C63	C	0.483064	0.486188	0.778998
H55	H	0.469190	0.398991	0.767257
H56	H	0.536175	0.512606	0.699855
H57	H	0.404997	0.522967	0.759639
C64	C	0.570918	0.626107	0.934655
H58	H	0.616530	0.633646	0.028305
H59	H	0.507003	0.685425	0.940370
H60	H	0.623908	0.652333	0.855297
C65	C	0.709316	0.007758	0.405972
C66	C	0.599916	0.947845	0.401151
H61	H	0.610740	0.860627	0.385938
H62	H	0.548293	0.976985	0.319032
H63	H	0.554392	0.960925	0.491515
C67	C	0.678120	0.126700	0.423723
H64	H	0.634673	0.136448	0.516203
H65	H	0.624185	0.153506	0.342701
H66	H	0.743745	0.184331	0.430003
C68	C	0.758942	0.982844	0.272298
H67	H	0.770218	0.895189	0.262250
H68	H	0.837587	0.017301	0.254185
H69	H	0.704897	0.009848	0.191483
C69	C	0.458618	0.995072	0.906383
C70	C	0.350135	0.056637	0.902389
H70	H	0.362241	0.143745	0.887692
H71	H	0.297861	0.028611	0.820288
H72	H	0.304663	0.043873	0.992859
C71	C	0.425670	0.876540	0.923498
H73	H	0.382331	0.867067	0.016096
H74	H	0.371123	0.850878	0.842518
H75	H	0.490425	0.817906	0.929143
C72	C	0.508256	0.019784	0.772662
H76	H	0.520833	0.107300	0.763130
H77	H	0.586315	0.984226	0.754008
H78	H	0.453596	0.993925	0.691888
C73	C	0.430673	0.483230	0.688370
C74	C	0.380816	0.543183	0.805480
H79	H	0.430481	0.533694	0.895848
H80	H	0.300189	0.511072	0.827170
H81	H	0.370178	0.629696	0.784499
C75	C	0.349884	0.502873	0.574114
H82	H	0.343255	0.590018	0.554893
H83	H	0.269171	0.472952	0.598997
H84	H	0.369287	0.467551	0.480208
C76	C	0.436377	0.365179	0.733817
H85	H	0.488310	0.359094	0.822729
H86	H	0.469713	0.307676	0.665637
H87	H	0.355545	0.335447	0.758480
C77	C	0.681126	0.515482	0.190410
C78	C	0.632584	0.455680	0.308475
H88	H	0.682614	0.466255	0.398366
H89	H	0.551729	0.487026	0.330523
H90	H	0.622814	0.368932	0.288360
C79	C	0.599965	0.494268	0.076969
H91	H	0.594219	0.406942	0.058588
H92	H	0.519066	0.523442	0.102231
H93	H	0.618462	0.529242	0.982579
C80	C	0.685738	0.633856	0.234747
H94	H	0.738067	0.641043	0.323196
H95	H	0.718052	0.691315	0.165772
H96	H	0.604721	0.662839	0.259792

loop_
_geom_bond_atom_site_label_1
_geom_bond_atom_site_label_2
_geom_bond_distance
Ni1	O2	0.16599
Ni1	O4	0.16318
Ni1	O6	0.18273
Ni1	O8	0.18366
Ni1	N1	0.17612
Ni1	N3	0.17584
Ni2	O3	0.16282
Ni2	O5	0.18195
Ni2	N4	0.17757
Ni2	O9	0.16410
Ni2	O15	0.18358
Ni2	N6	0.17676
O1	C23	0.11387
O1	Ni4	0.16410
O2	C24	0.11378
O3	C21	0.11585
O4	C22	0.11585
O5	C47	0.10254
O6	C24	0.10252
O7	Ni4	0.18358
O7	C45	0.10305
O8	C22	0.10301
N1	C11	0.12347
N1	C13	0.10899
N2	C12	0.12355
N2	C14	0.10891
N2	Ni4	0.17676
N3	C9	0.12117
N3	C15	0.10822
N4	C10	0.12114
N4	C16	0.10817
C1	H1	0.09850
C1	C3	0.11328
C1	C11	0.12097
C2	C4	0.11325
C2	C12	0.12119
C2	H14	0.09852
C3	C5	0.12757
C3	C21	0.12596
C4	C6	0.12764
C4	C22	0.12621
C5	C13	0.12008
C5	C49	0.13052
C6	C14	0.12032
C6	C53	0.13040
H2	C29	0.08819
C7	H3	0.09658
C7	C9	0.12152
C7	C19	0.11239
C8	C10	0.12175
C8	C20	0.11233
C8	C61	0.14246
H4	C32	0.09661
C9	H5	0.08706
C10	H18	0.08704
H6	C34	0.08704
C11	H7	0.08757
C12	H20	0.08756
H8	C36	0.08756
C13	H9	0.09912
C14	H10	0.09914
C15	H11	0.09732
C15	C17	0.12075
C16	H12	0.09742
C16	C18	0.12102
C17	C19	0.12512
C17	C57	0.12899
C18	H13	0.08735
C18	C20	0.12540
C19	C23	0.12664
C20	C24	0.12739
C21	O15	0.10305
C23	O13	0.10254
Ni3	O10	0.16599
Ni3	O12	0.16318
Ni3	O14	0.18273
Ni3	O16	0.18366
Ni3	N5	0.17612
Ni3	N7	0.17584
Ni4	O11	0.16282
Ni4	O13	0.18195
Ni4	N8	0.17757
O9	C47	0.11387
O10	C48	0.11378
O11	C45	0.11585
O12	C46	0.11585
O14	C48	0.10252
O16	C46	0.10301
N5	C35	0.12347
N5	C37	0.10899
N6	C36	0.12355
N6	C38	0.10891
N7	C33	0.12117
N7	C39	0.10822
N8	C34	0.12114
N8	C40	0.10817
C25	C27	0.11328
C25	C35	0.12097
C25	C65	0.14528
C26	C28	0.11325
C26	C36	0.12119
C26	C69	0.14525
C27	C29	0.12757
C27	C45	0.12596
C28	C30	0.12764
C28	C46	0.12621
C29	C37	0.12008
C30	H15	0.08814
C30	C38	0.12032
C31	H16	0.09658
C31	C33	0.12152
C31	C43	0.11239
C32	C34	0.12175
C32	C44	0.11233
C33	H17	0.08706
C35	H19	0.08757
C37	H21	0.09912
C38	H22	0.09914
C39	H23	0.09732
C39	C41	0.12075
C40	H24	0.09742
C40	C42	0.12102
C41	C43	0.12512
C41	C73	0.12899
C42	C44	0.12540
C43	C47	0.12664
C44	C48	0.12739
C49	C50	0.14300
C49	C51	0.12623
C49	C52	0.13825
C50	H25	0.08940
C50	H26	0.09031
C50	H27	0.10155
C51	H28	0.10110
C51	H29	0.09056
C51	H30	0.09664
C52	H31	0.08929
C52	H32	0.10328
C52	H33	0.09059
C53	C54	0.14300
C53	C55	0.12616
C53	C56	0.13837
C54	H34	0.08938
C54	H35	0.09024
C54	H36	0.10163
C55	H37	0.10119
C55	H38	0.09049
C55	H39	0.09667
C56	H40	0.08927
C56	H41	0.10330
C56	H42	0.09051
C57	C58	0.14070
C57	C59	0.12662
C57	C60	0.14130
C58	H43	0.08965
C58	H44	0.08946
C58	H45	0.10355
C59	H46	0.10315
C59	H47	0.08959
C59	H48	0.09522
C60	H49	0.08949
C60	H50	0.10219
C60	H51	0.08960
C61	C62	0.12468
C61	C63	0.14694
C61	C64	0.12456
C62	H52	0.10389
C62	H53	0.09934
C62	H54	0.08937
C63	H55	0.08907
C63	H56	0.09891
C63	H57	0.08844
C64	H58	0.10444
C64	H59	0.08739
C64	H60	0.09896
C65	C66	0.12482
C65	C67	0.12424
C65	C68	0.14475
C66	H61	0.08920
C66	H62	0.10128
C66	H63	0.10203
C67	H64	0.10264
C67	H65	0.10096
C67	H66	0.08756
C68	H67	0.08895
C68	H68	0.08775
C68	H69	0.10090
C69	C70	0.12480
C69	C71	0.12421
C69	C72	0.14476
C70	H70	0.08916
C70	H71	0.10129
C70	H72	0.10206
C71	H73	0.10268
C71	H74	0.10095
C71	H75	0.08754
C72	H76	0.08893
C72	H77	0.08778
C72	H78	0.10090
C73	C74	0.14069
C73	C75	0.14131
C74	H79	0.10355
C74	H80	0.08946
C74	H81	0.08965
C75	H82	0.08949
C75	H83	0.08960
C75	H84	0.10219
