data_NiPyC2_relax_NiPyC2_relax_aligned_P-2CH3_NiPyC2_relax_aligned_P-2CH3_NiPyC2_relax_aligned_P-2CH3_NiPyC2_relax_aligned_P-2CH3_NiPyC2_relax_aligned_P-2CH3_NiPyC2_relax_aligned_P-2CH3_NiPyC2_relax_aligned_P-2CH3_NiPyC2_relax_aligned_P-2CH3_PM
_symmetry_space_group_name_H-M	'P1'
_cell_length_a	12.505600
_cell_length_b	12.523400
_cell_length_c	10.276800
_cell_angle_alpha	90.000000
_cell_angle_beta	91.269000
_cell_angle_gamma	90.000000
_symmetry_Int_Tables_number 1

loop_
_symmetry_equiv_pos_as_xyz
'x,y,z'

loop_
_atom_site_label
_atom_site_type_symbol
_atom_site_fract_x
_atom_site_fract_y
_atom_site_fract_z
Ni1	Ni	0.247002	0.751486	0.836326
Ni2	Ni	0.499972	0.247999	0.339178
O1	O	0.122778	0.347689	0.382873
O2	O	0.371208	0.650977	0.881292
O3	O	0.377630	0.147507	0.377178
O4	O	0.125098	0.852352	0.876261
O5	O	0.473069	0.356160	0.482994
O6	O	0.221137	0.641415	0.979877
O7	O	0.028840	0.135158	0.481078
O8	O	0.276686	0.862758	0.979399
N1	N	0.308437	0.851253	0.704828
N2	N	0.060729	0.148857	0.206052
N3	N	0.186542	0.650310	0.705838
N4	N	0.438810	0.350928	0.208041
C1	C	0.288212	0.970050	0.521984
C2	C	0.038379	0.031106	0.022308
H1	H	0.237124	0.999575	0.443113
H2	H	0.486538	0.002692	0.943499
C3	C	0.390634	0.011770	0.546492
C4	C	0.140244	0.987744	0.046146
C5	C	0.451915	0.970202	0.650371
C6	C	0.202520	0.028353	0.149893
H3	H	0.032063	0.998805	0.673520
H4	H	0.282340	0.998665	0.172602
C7	C	0.208181	0.529704	0.526384
C8	C	0.458545	0.471409	0.027904
H5	H	0.258700	0.500895	0.449282
H6	H	0.008641	0.500397	0.950548
C9	C	0.245137	0.613331	0.606435
C10	C	0.496819	0.388677	0.108617
H7	H	0.322641	0.650506	0.592635
C11	C	0.249476	0.889206	0.603203
C12	C	0.001069	0.112232	0.104247
H8	H	0.170154	0.855123	0.588560
H9	H	0.422322	0.147732	0.089886
C13	C	0.407977	0.889383	0.727552
C14	C	0.159935	0.109547	0.227812
H10	H	0.206239	0.143103	0.308797
C15	C	0.088862	0.608983	0.727352
C16	C	0.340890	0.391633	0.229394
C17	C	0.046925	0.525079	0.651312
C18	C	0.297658	0.474711	0.152754
H11	H	0.468672	0.493231	0.673502
H12	H	0.218952	0.505201	0.175264
C19	C	0.108164	0.484270	0.550116
C20	C	0.357832	0.515656	0.050638
C21	C	0.433310	0.099319	0.466621
C22	C	0.181517	0.899720	0.965672
C23	C	0.067378	0.394474	0.470676
C24	C	0.316043	0.604172	0.969107
Ni3	Ni	0.747002	0.751486	0.836326
Ni4	Ni	0.999972	0.247999	0.339178
O9	O	0.622779	0.347689	0.382873
O10	O	0.871208	0.650977	0.881292
O11	O	0.877630	0.147507	0.377178
O12	O	0.625098	0.852352	0.876261
O13	O	0.973069	0.356160	0.482994
O14	O	0.721137	0.641415	0.979877
O15	O	0.528840	0.135158	0.481078
O16	O	0.776686	0.862758	0.979399
N5	N	0.808437	0.851253	0.704828
N6	N	0.560729	0.148857	0.206052
N7	N	0.686543	0.650310	0.705838
N8	N	0.938810	0.350928	0.208041
C25	C	0.788212	0.970050	0.521984
C26	C	0.538379	0.031106	0.022308
H13	H	0.737124	0.999575	0.443113
H14	H	0.986538	0.002692	0.943499
C27	C	0.890634	0.011770	0.546492
C28	C	0.640244	0.987744	0.046146
C29	C	0.951915	0.970202	0.650371
C30	C	0.702520	0.028353	0.149893
H15	H	0.532062	0.998805	0.673520
H16	H	0.782340	0.998665	0.172602
C31	C	0.708182	0.529704	0.526384
C32	C	0.958546	0.471409	0.027904
H17	H	0.758700	0.500895	0.449282
H18	H	0.508641	0.500397	0.950548
C33	C	0.745137	0.613331	0.606435
C34	C	0.996819	0.388677	0.108617
H19	H	0.574968	0.352851	0.095028
C35	C	0.749476	0.889206	0.603203
C36	C	0.501069	0.112232	0.104247
C37	C	0.907977	0.889383	0.727552
C38	C	0.659934	0.109547	0.227812
H20	H	0.953370	0.855173	0.808761
C39	C	0.588862	0.608983	0.727352
C40	C	0.840890	0.391633	0.229394
H21	H	0.543729	0.642944	0.806608
H22	H	0.796378	0.357526	0.309051
C41	C	0.546925	0.525079	0.651312
C42	C	0.797658	0.474711	0.152754
H23	H	0.968672	0.493231	0.673502
H24	H	0.718952	0.505201	0.175264
C43	C	0.608164	0.484270	0.550116
C44	C	0.857832	0.515656	0.050638
C45	C	0.933310	0.099319	0.466621
C46	C	0.681517	0.899720	0.965672
C47	C	0.567377	0.394474	0.470676
C48	C	0.816043	0.604172	0.969107
P1	P	0.490774	0.830777	0.868871
C49	C	0.393986	0.742855	0.954569
H25	H	0.375255	0.671665	0.893991
H26	H	0.319360	0.786653	0.976575
H27	H	0.431112	0.715734	0.047872
C50	C	0.479312	0.946048	0.983202
H28	H	0.524059	0.015905	0.946951
H29	H	0.513262	0.923045	0.079837
H30	H	0.394246	0.969078	0.993589
P2	P	0.863125	0.173239	0.072060
C51	C	0.842202	0.260875	0.216719
H31	H	0.895962	0.331204	0.212559
H32	H	0.856701	0.216418	0.308881
H33	H	0.758201	0.289400	0.214869
C52	C	0.781716	0.059030	0.132235
H34	H	0.788416	0.989344	0.066570
H35	H	0.696529	0.083433	0.135302
H36	H	0.809532	0.035093	0.231283
P3	P	0.006819	0.666683	0.865212
C53	C	0.085711	0.785911	0.920452
H37	H	0.160318	0.759713	0.971415
H38	H	0.105090	0.838342	0.837130
H39	H	0.037404	0.832651	0.989536
C54	C	0.908271	0.743141	0.762487
H40	H	0.855018	0.688032	0.707143
H41	H	0.858645	0.793596	0.826176
H42	H	0.950426	0.794843	0.692499
P4	P	0.259735	0.334147	0.368370
C55	C	0.339908	0.216031	0.424486
H43	H	0.414427	0.243260	0.474807
H44	H	0.359504	0.163198	0.341620
H45	H	0.292270	0.169338	0.494304
C56	C	0.161580	0.256082	0.266933
H46	H	0.107640	0.310317	0.211266
H47	H	0.112640	0.205625	0.331403
H48	H	0.203985	0.204278	0.197282
P5	P	0.610642	0.830509	0.570348
C57	C	0.588136	0.742586	0.714355
H49	H	0.640783	0.671443	0.709814
H50	H	0.603211	0.786410	0.806846
H51	H	0.503693	0.715390	0.712147
C58	C	0.530966	0.945717	0.631149
H52	H	0.538859	0.015572	0.565980
H53	H	0.445396	0.922638	0.633883
H54	H	0.559022	0.968786	0.730410
P6	P	0.743946	0.166357	0.369162
C59	C	0.663283	0.282211	0.426825
H55	H	0.590617	0.252952	0.475536
H56	H	0.640494	0.335915	0.344868
H57	H	0.712043	0.328682	0.498326
C60	C	0.837965	0.247604	0.270784
H58	H	0.891307	0.195148	0.214637
H59	H	0.887815	0.297940	0.337037
H60	H	0.792748	0.299686	0.201712
P7	P	0.880953	0.676915	0.575998
C61	C	0.885366	0.793975	0.689099
H61	H	0.893778	0.765848	0.791181
H62	H	0.812490	0.843954	0.677227
H63	H	0.955811	0.843930	0.666477
C62	C	0.841562	0.755186	0.427713
H64	H	0.824012	0.701160	0.344637
H65	H	0.908347	0.808798	0.401515
H66	H	0.769304	0.803795	0.446304
P8	P	0.133589	0.327012	0.078297
C63	C	0.156621	0.236800	0.221298
H67	H	0.102150	0.167027	0.214092
H68	H	0.144342	0.279835	0.314213
H69	H	0.240352	0.207581	0.220780
C64	C	0.217215	0.439479	0.143278
H70	H	0.209821	0.510302	0.079174
H71	H	0.302266	0.414287	0.147807
H72	H	0.191572	0.462000	0.242246

loop_
_geom_bond_atom_site_label_1
_geom_bond_atom_site_label_2
_geom_bond_distance
Ni1	O2	0.16599
Ni1	O4	0.16318
Ni1	O6	0.18273
Ni1	O8	0.18366
Ni1	N1	0.17612
Ni1	N3	0.17584
Ni2	O3	0.16282
Ni2	O5	0.18195
Ni2	N4	0.17757
Ni2	O9	0.16410
Ni2	O15	0.18358
Ni2	N6	0.17676
O1	C23	0.11387
O1	Ni4	0.16410
O2	C24	0.11378
O3	C21	0.11585
O4	C22	0.11585
O5	C47	0.10254
O6	C24	0.10252
O7	Ni4	0.18358
O7	C45	0.10305
O8	C22	0.10301
N1	C11	0.12347
N1	C13	0.10899
N2	C12	0.12355
N2	C14	0.10891
N2	Ni4	0.17676
N3	C9	0.12117
N3	C15	0.10822
N4	C10	0.12114
N4	C16	0.10817
C1	H1	0.09850
C1	C3	0.11328
C1	C11	0.12097
C2	C4	0.11325
C2	C12	0.12119
C2	H14	0.09852
H2	C26	0.09852
C3	C5	0.12757
C3	C21	0.12596
C4	C6	0.12764
C4	C22	0.12621
C5	C13	0.12008
C5	H15	0.08819
C6	H4	0.08814
C6	C14	0.12032
H3	C29	0.08819
C7	H5	0.09658
C7	C9	0.12152
C7	C19	0.11239
C8	C10	0.12175
C8	C20	0.11233
C8	H18	0.09661
H6	C32	0.09661
C9	H7	0.08706
C10	H19	0.08704
C11	H8	0.08757
C12	P2	0.15423
H9	C36	0.08756
C13	P1	0.17396
C14	H10	0.09914
C15	C17	0.12075
C15	P3	0.17049
C16	C18	0.12102
C16	P4	0.17090
C17	C19	0.12512
C17	H23	0.08735
C18	H12	0.08735
C18	C20	0.12540
H11	C41	0.08735
C19	C23	0.12664
C20	C24	0.12739
C21	O15	0.10305
C23	O13	0.10254
Ni3	O10	0.16599
Ni3	O12	0.16318
Ni3	O14	0.18273
Ni3	O16	0.18366
Ni3	N5	0.17612
Ni3	N7	0.17584
Ni4	O11	0.16282
Ni4	O13	0.18195
Ni4	N8	0.17757
O9	C47	0.11387
O10	C48	0.11378
O11	C45	0.11585
O12	C46	0.11585
O14	C48	0.10252
O16	C46	0.10301
N5	C35	0.12347
N5	C37	0.10899
N6	C36	0.12355
N6	C38	0.10891
N7	C33	0.12117
N7	C39	0.10822
N8	C34	0.12114
N8	C40	0.10817
C25	H13	0.09850
C25	C27	0.11328
C25	C35	0.12097
C26	C28	0.11325
C26	C36	0.12119
C27	C29	0.12757
C27	C45	0.12596
C28	C30	0.12764
C28	C46	0.12621
C29	C37	0.12008
C30	H16	0.08814
C30	C38	0.12032
C31	H17	0.09658
C31	C33	0.12152
C31	C43	0.11239
C32	C34	0.12175
C32	C44	0.11233
C33	P7	0.15302
C34	P8	0.15306
C35	P5	0.15427
C37	H20	0.09912
C38	P6	0.17397
C39	H21	0.09732
C39	C41	0.12075
C40	H22	0.09742
C40	C42	0.12102
C41	C43	0.12512
C42	H24	0.08735
C42	C44	0.12540
C43	C47	0.12664
C44	C48	0.12739
P1	C49	0.15634
P1	C50	0.16276
C49	H25	0.09533
C49	H26	0.08928
C49	H27	0.10402
C50	H28	0.09053
C50	H29	0.10498
C50	H30	0.08874
P2	C51	0.17042
P2	C52	0.15262
C51	H31	0.08862
C51	H32	0.10335
C51	H33	0.08873
C52	H34	0.09598
C52	H35	0.08867
C52	H36	0.10563
P3	C53	0.15327
P3	C54	0.16159
C53	H37	0.09407
C53	H38	0.10034
C53	H39	0.09639
C54	H40	0.09453
C54	H41	0.09521
C54	H42	0.09669
P4	C55	0.15339
P4	C56	0.16130
C55	H43	0.09395
C55	H44	0.10021
C55	H45	0.09656
C56	H46	0.09460
C56	H47	0.09538
C56	H48	0.09661
P5	C57	0.17022
P5	C58	0.15270
C57	H49	0.08862
C57	H50	0.10345
C57	H51	0.08874
C58	H52	0.09586
C58	H53	0.08867
C58	H54	0.10570
P6	C59	0.15249
P6	C60	0.15849
C59	H55	0.09225
C59	H56	0.10060
C59	H57	0.09823
C60	H58	0.09354
C60	H59	0.09700
C60	H60	0.09761
P7	C61	0.16283
P7	C62	0.17224
C61	H61	0.10622
C61	H62	0.08916
C61	H63	0.08927
C62	H64	0.10064
C62	H65	0.08956
C62	H66	0.08905
P8	C63	0.17064
P8	C64	0.15448
C63	H67	0.08881
C63	H68	0.10313
C63	H69	0.08868
C64	H70	0.09581
C64	H71	0.08882
C64	H72	0.10469
