data_NiPyC2_relax_NiPyC2_relax_aligned_P-2CH3_NiPyC2_relax_aligned_P-2CH3_NiPyC2_relax_aligned_P-2CH3_NiPyC2_relax_aligned_P-2CH3_NiPyC2_relax_aligned_P-2CH3_NiPyC2_relax_aligned_P-2CH3_NiPyC2_relax_aligned_P-2CH3_NiPyC2_relax_aligned_P-2CH3_PM
_symmetry_space_group_name_H-M	'P1'
_cell_length_a	12.505600
_cell_length_b	12.523400
_cell_length_c	10.276800
_cell_angle_alpha	90.000000
_cell_angle_beta	91.269000
_cell_angle_gamma	90.000000
_symmetry_Int_Tables_number 1

loop_
_symmetry_equiv_pos_as_xyz
'x,y,z'

loop_
_atom_site_label
_atom_site_type_symbol
_atom_site_fract_x
_atom_site_fract_y
_atom_site_fract_z
Ni1	Ni	0.247002	0.751486	0.836326
Ni2	Ni	0.499972	0.247999	0.339178
O1	O	0.122778	0.347689	0.382873
O2	O	0.371208	0.650977	0.881292
O3	O	0.377630	0.147507	0.377178
O4	O	0.125098	0.852352	0.876261
O5	O	0.473069	0.356160	0.482994
O6	O	0.221137	0.641415	0.979877
O7	O	0.028840	0.135158	0.481078
O8	O	0.276686	0.862758	0.979399
N1	N	0.308437	0.851253	0.704828
N2	N	0.060729	0.148857	0.206052
N3	N	0.186542	0.650310	0.705838
N4	N	0.438810	0.350928	0.208041
C1	C	0.288212	0.970050	0.521984
C2	C	0.038379	0.031106	0.022308
C3	C	0.390634	0.011770	0.546492
C4	C	0.140244	0.987744	0.046146
C5	C	0.451915	0.970202	0.650371
C6	C	0.202520	0.028353	0.149893
H1	H	0.032063	0.998805	0.673520
C7	C	0.208181	0.529704	0.526384
C8	C	0.458545	0.471409	0.027904
H2	H	0.008641	0.500397	0.950548
C9	C	0.245137	0.613331	0.606435
C10	C	0.496819	0.388677	0.108617
H3	H	0.322641	0.650506	0.592635
H4	H	0.074968	0.352851	0.095028
C11	C	0.249476	0.889206	0.603203
C12	C	0.001069	0.112232	0.104247
H5	H	0.170154	0.855123	0.588560
H6	H	0.422322	0.147732	0.089886
C13	C	0.407977	0.889383	0.727552
C14	C	0.159935	0.109547	0.227812
H7	H	0.453370	0.855173	0.808761
H8	H	0.206239	0.143103	0.308797
C15	C	0.088862	0.608983	0.727352
C16	C	0.340890	0.391633	0.229394
H9	H	0.043729	0.642944	0.806608
H10	H	0.296378	0.357526	0.309051
C17	C	0.046925	0.525079	0.651312
C18	C	0.297658	0.474711	0.152754
H11	H	0.468672	0.493231	0.673502
C19	C	0.108164	0.484270	0.550116
C20	C	0.357832	0.515656	0.050638
C21	C	0.433310	0.099319	0.466621
C22	C	0.181517	0.899720	0.965672
C23	C	0.067378	0.394474	0.470676
C24	C	0.316043	0.604172	0.969107
Ni3	Ni	0.747002	0.751486	0.836326
Ni4	Ni	0.999972	0.247999	0.339178
O9	O	0.622779	0.347689	0.382873
O10	O	0.871208	0.650977	0.881292
O11	O	0.877630	0.147507	0.377178
O12	O	0.625098	0.852352	0.876261
O13	O	0.973069	0.356160	0.482994
O14	O	0.721137	0.641415	0.979877
O15	O	0.528840	0.135158	0.481078
O16	O	0.776686	0.862758	0.979399
N5	N	0.808437	0.851253	0.704828
N6	N	0.560729	0.148857	0.206052
N7	N	0.686543	0.650310	0.705838
N8	N	0.938810	0.350928	0.208041
C25	C	0.788212	0.970050	0.521984
C26	C	0.538379	0.031106	0.022308
H12	H	0.986538	0.002692	0.943499
C27	C	0.890634	0.011770	0.546492
C28	C	0.640244	0.987744	0.046146
C29	C	0.951915	0.970202	0.650371
C30	C	0.702520	0.028353	0.149893
H13	H	0.532062	0.998805	0.673520
H14	H	0.782340	0.998665	0.172602
C31	C	0.708182	0.529704	0.526384
C32	C	0.958546	0.471409	0.027904
H15	H	0.508641	0.500397	0.950548
C33	C	0.745137	0.613331	0.606435
C34	C	0.996819	0.388677	0.108617
H16	H	0.822641	0.650506	0.592635
H17	H	0.574968	0.352851	0.095028
C35	C	0.749476	0.889206	0.603203
C36	C	0.501069	0.112232	0.104247
H18	H	0.670154	0.855123	0.588560
H19	H	0.922322	0.147732	0.089886
C37	C	0.907977	0.889383	0.727552
C38	C	0.659934	0.109547	0.227812
H20	H	0.953370	0.855173	0.808761
H21	H	0.706240	0.143103	0.308797
C39	C	0.588862	0.608983	0.727352
C40	C	0.840890	0.391633	0.229394
H22	H	0.543729	0.642944	0.806608
H23	H	0.796378	0.357526	0.309051
C41	C	0.546925	0.525079	0.651312
C42	C	0.797658	0.474711	0.152754
H24	H	0.968672	0.493231	0.673502
C43	C	0.608164	0.484270	0.550116
C44	C	0.857832	0.515656	0.050638
C45	C	0.933310	0.099319	0.466621
C46	C	0.681517	0.899720	0.965672
C47	C	0.567377	0.394474	0.470676
C48	C	0.816043	0.604172	0.969107
P1	P	0.200620	0.018875	0.382799
C49	C	0.068723	0.952434	0.408205
H25	H	0.075249	0.865762	0.387513
H26	H	0.041090	0.965012	0.508964
H27	H	0.008447	0.987523	0.339900
C50	C	0.162278	0.149729	0.455697
H28	H	0.232359	0.203626	0.463112
H29	H	0.100055	0.188070	0.392860
H30	H	0.130400	0.137684	0.554532
P2	P	0.341232	0.977389	0.188468
C51	C	0.394240	0.070002	0.317360
H31	H	0.352313	0.055745	0.409773
H32	H	0.384814	0.154659	0.287208
H33	H	0.480723	0.053937	0.333795
C52	C	0.410414	0.043464	0.050685
H34	H	0.384326	0.008009	0.956497
H35	H	0.498033	0.032128	0.063068
H36	H	0.392113	0.130156	0.048713
P3	P	0.294524	0.482318	0.390108
C53	C	0.424115	0.554635	0.416409
H37	H	0.413466	0.640600	0.393497
H38	H	0.454567	0.544889	0.518000
H39	H	0.484266	0.520982	0.350095
C54	C	0.340026	0.354413	0.466900
H40	H	0.272433	0.297758	0.474289
H41	H	0.402385	0.317683	0.406169
H42	H	0.373638	0.369411	0.566051
P4	P	0.160712	0.527224	0.190181
C55	C	0.125714	0.460065	0.346183
H43	H	0.110167	0.374011	0.328469
H44	H	0.190554	0.469867	0.420752
H45	H	0.051962	0.496978	0.383920
C56	C	0.204110	0.655993	0.266570
H46	H	0.238911	0.709688	0.193081
H47	H	0.133779	0.696005	0.308893
H48	H	0.265087	0.641235	0.344579
P5	P	0.700347	0.019360	0.383309
C57	C	0.583693	0.925791	0.380159
H49	H	0.533378	0.940280	0.465954
H50	H	0.610585	0.841331	0.378770
H51	H	0.534695	0.940810	0.290727
C58	C	0.772893	0.952864	0.248468
H52	H	0.853024	0.988874	0.237054
H53	H	0.726433	0.963153	0.156101
H54	H	0.782833	0.866396	0.268961
P6	P	0.449415	0.983698	0.883682
C59	C	0.334194	0.079018	0.881604
H55	H	0.283898	0.064935	0.967514
H56	H	0.362360	0.163070	0.880648
H57	H	0.284739	0.065102	0.792268
C60	C	0.522595	0.049648	0.748966
H58	H	0.602135	0.012487	0.736996
H59	H	0.475742	0.040436	0.656716
H60	H	0.533901	0.135873	0.769975
P7	P	0.794524	0.482318	0.390108
C61	C	0.924115	0.554635	0.416409
H61	H	0.913466	0.640600	0.393497
H62	H	0.954567	0.544889	0.518000
H63	H	0.984266	0.520982	0.350095
C62	C	0.840026	0.354413	0.466900
H64	H	0.772433	0.297758	0.474289
H65	H	0.902385	0.317683	0.406169
H66	H	0.873638	0.369411	0.566051
P8	P	0.660712	0.527224	0.190181
C63	C	0.625714	0.460065	0.346183
H67	H	0.610167	0.374011	0.328469
H68	H	0.690554	0.469867	0.420752
H69	H	0.551962	0.496978	0.383920
C64	C	0.704110	0.655993	0.266570
H70	H	0.738911	0.709688	0.193081
H71	H	0.633779	0.696005	0.308893
H72	H	0.765087	0.641235	0.344579

loop_
_geom_bond_atom_site_label_1
_geom_bond_atom_site_label_2
_geom_bond_distance
Ni1	O2	0.16599
Ni1	O4	0.16318
Ni1	O6	0.18273
Ni1	O8	0.18366
Ni1	N1	0.17612
Ni1	N3	0.17584
Ni2	O3	0.16282
Ni2	O5	0.18195
Ni2	N4	0.17757
Ni2	O9	0.16410
Ni2	O15	0.18358
Ni2	N6	0.17676
O1	C23	0.11387
O1	Ni4	0.16410
O2	C24	0.11378
O3	C21	0.11585
O4	C22	0.11585
O5	C47	0.10254
O6	C24	0.10252
O7	Ni4	0.18358
O7	C45	0.10305
O8	C22	0.10301
N1	C11	0.12347
N1	C13	0.10899
N2	C12	0.12355
N2	C14	0.10891
N2	Ni4	0.17676
N3	C9	0.12117
N3	C15	0.10822
N4	C10	0.12114
N4	C16	0.10817
C1	C3	0.11328
C1	C11	0.12097
C1	P1	0.17155
C2	C4	0.11325
C2	C12	0.12119
C2	H12	0.09852
C3	C5	0.12757
C3	C21	0.12596
C4	C6	0.12764
C4	C22	0.12621
C5	C13	0.12008
C5	H13	0.08819
C6	C14	0.12032
C6	P2	0.15273
H1	C29	0.08819
C7	C9	0.12152
C7	C19	0.11239
C7	P3	0.16814
C8	C10	0.12175
C8	C20	0.11233
C8	H15	0.09661
H2	C32	0.09661
C9	H3	0.08706
C10	H17	0.08704
H4	C34	0.08704
C11	H5	0.08757
C12	H19	0.08756
H6	C36	0.08756
C13	H7	0.09912
C14	H8	0.09914
C15	H9	0.09732
C15	C17	0.12075
C16	H10	0.09742
C16	C18	0.12102
C17	C19	0.12512
C17	H24	0.08735
C18	C20	0.12540
C18	P4	0.15137
H11	C41	0.08735
C19	C23	0.12664
C20	C24	0.12739
C21	O15	0.10305
C23	O13	0.10254
Ni3	O10	0.16599
Ni3	O12	0.16318
Ni3	O14	0.18273
Ni3	O16	0.18366
Ni3	N5	0.17612
Ni3	N7	0.17584
Ni4	O11	0.16282
Ni4	O13	0.18195
Ni4	N8	0.17757
O9	C47	0.11387
O10	C48	0.11378
O11	C45	0.11585
O12	C46	0.11585
O14	C48	0.10252
O16	C46	0.10301
N5	C35	0.12347
N5	C37	0.10899
N6	C36	0.12355
N6	C38	0.10891
N7	C33	0.12117
N7	C39	0.10822
N8	C34	0.12114
N8	C40	0.10817
C25	C27	0.11328
C25	C35	0.12097
C25	P5	0.17141
C26	C28	0.11325
C26	C36	0.12119
C26	P6	0.17140
C27	C29	0.12757
C27	C45	0.12596
C28	C30	0.12764
C28	C46	0.12621
C29	C37	0.12008
C30	H14	0.08814
C30	C38	0.12032
C31	C33	0.12152
C31	C43	0.11239
C31	P7	0.16814
C32	C34	0.12175
C32	C44	0.11233
C33	H16	0.08706
C35	H18	0.08757
C37	H20	0.09912
C38	H21	0.09914
C39	H22	0.09732
C39	C41	0.12075
C40	H23	0.09742
C40	C42	0.12102
C41	C43	0.12512
C42	C44	0.12540
C42	P8	0.15137
C43	C47	0.12664
C44	C48	0.12739
P1	C49	0.14986
P1	C50	0.15462
C49	H25	0.08935
C49	H26	0.10523
C49	H27	0.09762
C50	H28	0.08872
C50	H29	0.09639
C50	H30	0.10455
P2	C51	0.16733
P2	C52	0.16774
C51	H31	0.10248
C51	H32	0.09036
C51	H33	0.08948
C52	H34	0.10397
C52	H35	0.08921
C52	H36	0.08862
P3	C53	0.15072
P3	C54	0.15597
C53	H37	0.08960
C53	H38	0.10650
C53	H39	0.09565
C54	H40	0.08851
C54	H41	0.09448
C54	H42	0.10576
P4	C55	0.17341
P4	C56	0.15588
C55	H43	0.08922
C55	H44	0.09930
C55	H45	0.09070
C56	H46	0.09744
C56	H47	0.09132
C56	H48	0.10011
P5	C57	0.14958
P5	C58	0.16693
C57	H49	0.10051
C57	H50	0.08865
C57	H51	0.10308
C58	H52	0.08859
C58	H53	0.10390
C58	H54	0.08942
P6	C59	0.14955
P6	C60	0.16689
C59	H55	0.10054
C59	H56	0.08865
C59	H57	0.10305
C60	H58	0.08860
C60	H59	0.10388
C60	H60	0.08946
P7	C61	0.15072
P7	C62	0.15597
C61	H61	0.08960
C61	H62	0.10650
C61	H63	0.09565
C62	H64	0.08851
C62	H65	0.09448
C62	H66	0.10576
P8	C63	0.17341
P8	C64	0.15588
C63	H67	0.08922
C63	H68	0.09930
C63	H69	0.09070
C64	H70	0.09744
C64	H71	0.09132
C64	H72	0.10011
