data_NiPyC2_relax_NiPyC2_relax_aligned_O-CH2-CH3_NiPyC2_relax_aligned_O-CH2-CH3_NiPyC2_relax_aligned_O-CH2-CH3_NiPyC2_relax_aligned_O-CH2-CH3_NiPyC2_relax_aligned_O-CH2-CH3_NiPyC2_relax_aligned_O-CH2-CH3_NiPyC2_relax_aligned_O-CH2-CH3_NiPyC2_relax_aligned_O-CH2-CH3_PM
_symmetry_space_group_name_H-M	'P1'
_cell_length_a	12.505600
_cell_length_b	12.523400
_cell_length_c	10.276800
_cell_angle_alpha	90.000000
_cell_angle_beta	91.269000
_cell_angle_gamma	90.000000
_symmetry_Int_Tables_number 1

loop_
_symmetry_equiv_pos_as_xyz
'x,y,z'

loop_
_atom_site_label
_atom_site_type_symbol
_atom_site_fract_x
_atom_site_fract_y
_atom_site_fract_z
Ni1	Ni	0.247002	0.751486	0.836326
Ni2	Ni	0.499972	0.247999	0.339178
O1	O	0.122778	0.347689	0.382873
O2	O	0.371208	0.650977	0.881292
O3	O	0.377630	0.147507	0.377178
O4	O	0.125098	0.852352	0.876261
O5	O	0.473069	0.356160	0.482994
O6	O	0.221137	0.641415	0.979877
O7	O	0.028840	0.135158	0.481078
O8	O	0.276686	0.862758	0.979399
N1	N	0.308437	0.851253	0.704828
N2	N	0.060729	0.148857	0.206052
N3	N	0.186542	0.650310	0.705838
N4	N	0.438810	0.350928	0.208041
C1	C	0.288212	0.970050	0.521984
C2	C	0.038379	0.031106	0.022308
H1	H	0.237124	0.999575	0.443113
C3	C	0.390634	0.011770	0.546492
C4	C	0.140244	0.987744	0.046146
C5	C	0.451915	0.970202	0.650371
C6	C	0.202520	0.028353	0.149893
C7	C	0.208181	0.529704	0.526384
C8	C	0.458545	0.471409	0.027904
H2	H	0.258700	0.500895	0.449282
C9	C	0.245137	0.613331	0.606435
C10	C	0.496819	0.388677	0.108617
H3	H	0.322641	0.650506	0.592635
H4	H	0.074968	0.352851	0.095028
C11	C	0.249476	0.889206	0.603203
C12	C	0.001069	0.112232	0.104247
H5	H	0.170154	0.855123	0.588560
H6	H	0.422322	0.147732	0.089886
C13	C	0.407977	0.889383	0.727552
C14	C	0.159935	0.109547	0.227812
H7	H	0.453370	0.855173	0.808761
H8	H	0.206239	0.143103	0.308797
C15	C	0.088862	0.608983	0.727352
C16	C	0.340890	0.391633	0.229394
H9	H	0.043729	0.642944	0.806608
H10	H	0.296378	0.357526	0.309051
C17	C	0.046925	0.525079	0.651312
C18	C	0.297658	0.474711	0.152754
H11	H	0.218952	0.505201	0.175264
C19	C	0.108164	0.484270	0.550116
C20	C	0.357832	0.515656	0.050638
C21	C	0.433310	0.099319	0.466621
C22	C	0.181517	0.899720	0.965672
C23	C	0.067378	0.394474	0.470676
C24	C	0.316043	0.604172	0.969107
Ni3	Ni	0.747002	0.751486	0.836326
Ni4	Ni	0.999972	0.247999	0.339178
O9	O	0.622779	0.347689	0.382873
O10	O	0.871208	0.650977	0.881292
O11	O	0.877630	0.147507	0.377178
O12	O	0.625098	0.852352	0.876261
O13	O	0.973069	0.356160	0.482994
O14	O	0.721137	0.641415	0.979877
O15	O	0.528840	0.135158	0.481078
O16	O	0.776686	0.862758	0.979399
N5	N	0.808437	0.851253	0.704828
N6	N	0.560729	0.148857	0.206052
N7	N	0.686543	0.650310	0.705838
N8	N	0.938810	0.350928	0.208041
C25	C	0.788212	0.970050	0.521984
C26	C	0.538379	0.031106	0.022308
H12	H	0.737124	0.999575	0.443113
H13	H	0.986538	0.002692	0.943499
C27	C	0.890634	0.011770	0.546492
C28	C	0.640244	0.987744	0.046146
C29	C	0.951915	0.970202	0.650371
C30	C	0.702520	0.028353	0.149893
H14	H	0.782340	0.998665	0.172602
C31	C	0.708182	0.529704	0.526384
C32	C	0.958546	0.471409	0.027904
H15	H	0.758700	0.500895	0.449282
C33	C	0.745137	0.613331	0.606435
C34	C	0.996819	0.388677	0.108617
H16	H	0.822641	0.650506	0.592635
H17	H	0.574968	0.352851	0.095028
C35	C	0.749476	0.889206	0.603203
C36	C	0.501069	0.112232	0.104247
H18	H	0.670154	0.855123	0.588560
H19	H	0.922322	0.147732	0.089886
C37	C	0.907977	0.889383	0.727552
C38	C	0.659934	0.109547	0.227812
H20	H	0.953370	0.855173	0.808761
H21	H	0.706240	0.143103	0.308797
C39	C	0.588862	0.608983	0.727352
C40	C	0.840890	0.391633	0.229394
H22	H	0.543729	0.642944	0.806608
H23	H	0.796378	0.357526	0.309051
C41	C	0.546925	0.525079	0.651312
C42	C	0.797658	0.474711	0.152754
H24	H	0.718952	0.505201	0.175264
C43	C	0.608164	0.484270	0.550116
C44	C	0.857832	0.515656	0.050638
C45	C	0.933310	0.099319	0.466621
C46	C	0.681517	0.899720	0.965672
C47	C	0.567377	0.394474	0.470676
C48	C	0.816043	0.604172	0.969107
O17	O	0.552646	1.008511	0.674928
C49	C	0.621303	0.974757	0.773744
C50	C	0.725416	1.037132	0.767889
H25	H	0.638977	0.888293	0.762216
H26	H	0.584593	0.988959	0.869780
H27	H	0.763698	1.023622	0.672781
H28	H	0.780954	1.010336	0.847126
H29	H	0.709571	1.123814	0.779838
O18	O	0.302870	-0.011234	0.173589
C51	C	0.372380	0.021423	0.272084
C52	C	0.475684	-0.042185	0.265245
H30	H	0.391051	0.107699	0.260801
H31	H	0.335950	0.007405	0.368323
H32	H	0.513683	-0.028881	0.169921
H33	H	0.531903	-0.016274	0.344222
H34	H	0.458842	-0.128702	0.276936
O19	O	-0.051638	0.483001	0.674162
C53	C	-0.119921	0.515613	0.770253
C54	C	-0.221440	0.448824	0.763311
H35	H	-0.141436	0.601030	0.755939
H36	H	-0.080931	0.504704	0.867644
H37	H	-0.261955	0.458992	0.666827
H38	H	-0.276667	0.474684	0.840358
H39	H	-0.201736	0.363120	0.778005
O20	O	0.518034	0.509319	-0.072341
C55	C	0.618165	0.473234	-0.105667
C56	C	0.656829	0.535880	-0.222333
H40	H	0.675684	0.484996	-0.022838
H41	H	0.614229	0.387122	-0.131723
H42	H	0.661814	0.622203	-0.198110
H43	H	0.737321	0.507215	-0.249587
H44	H	0.600648	0.524790	-0.306482
O21	O	1.052646	1.008511	0.674928
C57	C	1.121303	0.974757	0.773744
C58	C	1.225416	1.037132	0.767889
H45	H	1.138977	0.888293	0.762216
H46	H	1.084593	0.988959	0.869780
H47	H	1.263698	1.023622	0.672781
H48	H	1.280954	1.010336	0.847126
H49	H	1.209571	1.123814	0.779838
O22	O	0.477028	-0.005970	-0.079868
C59	C	0.375681	0.029426	-0.114354
C60	C	0.335017	-0.031922	-0.233176
H50	H	0.320226	0.015756	-0.032907
H51	H	0.378004	0.115951	-0.138423
H52	H	0.331606	-0.118644	-0.210966
H53	H	0.253541	-0.003805	-0.261370
H54	H	0.389112	-0.018922	-0.315984
O23	O	0.448362	0.483002	0.674161
C61	C	0.380076	0.515618	0.770248
C62	C	0.278560	0.448824	0.763310
H55	H	0.419065	0.504714	0.867642
H56	H	0.358560	0.601032	0.755927
H57	H	0.298265	0.363122	0.778013
H58	H	0.223331	0.474688	0.840354
H59	H	0.238046	0.458985	0.666824
O24	O	1.018034	0.509319	-0.072341
C63	C	1.118165	0.473234	-0.105667
C64	C	1.156829	0.535880	-0.222333
H60	H	1.175684	0.484996	-0.022838
H61	H	1.114229	0.387122	-0.131723
H62	H	1.161814	0.622203	-0.198110
H63	H	1.237321	0.507215	-0.249587
H64	H	1.100648	0.524790	-0.306482

loop_
_geom_bond_atom_site_label_1
_geom_bond_atom_site_label_2
_geom_bond_distance
Ni1	O2	0.16599
Ni1	O4	0.16318
Ni1	O6	0.18273
Ni1	O8	0.18366
Ni1	N1	0.17612
Ni1	N3	0.17584
Ni2	O3	0.16282
Ni2	O5	0.18195
Ni2	N4	0.17757
Ni2	O9	0.16410
Ni2	O15	0.18358
Ni2	N6	0.17676
O1	C23	0.11387
O1	Ni4	0.16410
O2	C24	0.11378
O3	C21	0.11585
O4	C22	0.11585
O5	C47	0.10254
O6	C24	0.10252
O7	Ni4	0.18358
O7	C45	0.10305
O8	C22	0.10301
N1	C11	0.12347
N1	C13	0.10899
N2	C12	0.12355
N2	C14	0.10891
N2	Ni4	0.17676
N3	C9	0.12117
N3	C15	0.10822
N4	C10	0.12114
N4	C16	0.10817
C1	H1	0.09850
C1	C3	0.11328
C1	C11	0.12097
C2	C4	0.11325
C2	C12	0.12119
C2	H13	0.09852
C3	C5	0.12757
C3	C21	0.12596
C4	C6	0.12764
C4	C22	0.12621
C5	C13	0.12008
C5	O17	0.11053
C6	C14	0.12032
C6	O18	0.11045
C7	H2	0.09658
C7	C9	0.12152
C7	C19	0.11239
C8	C10	0.12175
C8	C20	0.11233
C8	O20	0.12258
C9	H3	0.08706
C10	H17	0.08704
H4	C34	0.08704
C11	H5	0.08757
C12	H19	0.08756
H6	C36	0.08756
C13	H7	0.09912
C14	H8	0.09914
C15	H9	0.09732
C15	C17	0.12075
C16	H10	0.09742
C16	C18	0.12102
C17	C19	0.12512
C17	O19	0.10958
C18	H11	0.08735
C18	C20	0.12540
C19	C23	0.12664
C20	C24	0.12739
C21	O15	0.10305
C23	O13	0.10254
Ni3	O10	0.16599
Ni3	O12	0.16318
Ni3	O14	0.18273
Ni3	O16	0.18366
Ni3	N5	0.17612
Ni3	N7	0.17584
Ni4	O11	0.16282
Ni4	O13	0.18195
Ni4	N8	0.17757
O9	C47	0.11387
O10	C48	0.11378
O11	C45	0.11585
O12	C46	0.11585
O14	C48	0.10252
O16	C46	0.10301
N5	C35	0.12347
N5	C37	0.10899
N6	C36	0.12355
N6	C38	0.10891
N7	C33	0.12117
N7	C39	0.10822
N8	C34	0.12114
N8	C40	0.10817
C25	H12	0.09850
C25	C27	0.11328
C25	C35	0.12097
C26	C28	0.11325
C26	C36	0.12119
C26	O22	0.12481
C27	C29	0.12757
C27	C45	0.12596
C28	C30	0.12764
C28	C46	0.12621
C29	C37	0.12008
C29	O21	0.11053
C30	H14	0.08814
C30	C38	0.12032
C31	H15	0.09658
C31	C33	0.12152
C31	C43	0.11239
C32	C34	0.12175
C32	C44	0.11233
C32	O24	0.12258
C33	H16	0.08706
C35	H18	0.08757
C37	H20	0.09912
C38	H21	0.09914
C39	H22	0.09732
C39	C41	0.12075
C40	H23	0.09742
C40	C42	0.12102
C41	C43	0.12512
C41	O23	0.10958
C42	H24	0.08735
C42	C44	0.12540
C43	C47	0.12664
C44	C48	0.12739
O17	C49	0.12497
C49	C50	0.12151
C49	H25	0.08900
C49	H26	0.10379
C50	H27	0.10341
C50	H28	0.10040
C50	H29	0.08893
O18	C51	0.12490
C51	C52	0.12151
C51	H30	0.08899
C51	H31	0.10385
C52	H32	0.10348
C52	H33	0.10035
C52	H34	0.08891
O19	C53	0.12231
C53	C54	0.12172
C53	H35	0.08924
C53	H36	0.10547
C54	H37	0.10514
C54	H38	0.09826
C54	H39	0.08916
O20	C55	0.11153
C55	C56	0.13795
C55	H40	0.10153
C55	H41	0.09005
C56	H42	0.08980
C56	H43	0.08968
C56	H44	0.10179
O21	C57	0.12497
C57	C58	0.12151
C57	H45	0.08900
C57	H46	0.10379
C58	H47	0.10341
C58	H48	0.10040
C58	H49	0.08893
O22	C59	0.11275
C59	C60	0.13977
C59	H50	0.09948
C59	H51	0.08984
C60	H52	0.08959
C60	H53	0.09069
C60	H54	0.09976
O23	C61	0.12231
C61	C62	0.12172
C61	H55	0.10547
C61	H56	0.08924
C62	H57	0.08916
C62	H58	0.09826
C62	H59	0.10514
O24	C63	0.11153
C63	C64	0.13795
C63	H60	0.10153
C63	H61	0.09005
C64	H62	0.08980
C64	H63	0.08968
C64	H64	0.10179
