data_NiPyC2_experiment_PM
_symmetry_space_group_name_H-M	'P1'
_cell_length_a	12.505600
_cell_length_b	25.046800
_cell_length_c	20.553600
_cell_angle_alpha	90.000000
_cell_angle_beta	91.269000
_cell_angle_gamma	90.000000
_symmetry_Int_Tables_number 1

loop_
_symmetry_equiv_pos_as_xyz
'x,y,z'

loop_
_atom_site_label
_atom_site_type_symbol
_atom_site_fract_x
_atom_site_fract_y
_atom_site_fract_z
Ni1	Ni	0.247400	0.376980	0.419715
O1	O	0.120650	0.174810	0.196450
O2	O	0.377450	0.066540	0.185100
O3	O	0.468450	0.176115	0.248650
O4	O	0.033250	0.059900	0.237100
N1	N	0.313950	0.421450	0.348100
N2	N	0.180550	0.323050	0.357550
C1	C	0.293900	0.479650	0.256700
H1	H	0.250100	0.493100	0.222050
C2	C	0.396600	0.499000	0.266850
C3	C	0.458550	0.477300	0.317700
H2	H	0.030100	0.488900	0.325250
C4	C	0.203850	0.259550	0.272050
H3	H	0.247550	0.245500	0.238900
C5	C	0.240150	0.301600	0.310850
H4	H	0.309550	0.315650	0.303950
C6	C	0.255750	0.440450	0.297500
H5	H	0.186050	0.426500	0.289550
C7	C	0.414250	0.438850	0.356850
H6	H	0.456650	0.424150	0.391300
C8	C	0.082250	0.302250	0.367300
H7	H	0.039650	0.317300	0.400350
C9	C	0.041300	0.260150	0.331300
H8	H	0.472300	0.246250	0.339550
C10	C	0.103950	0.238500	0.282300
C11	C	0.439000	0.044650	0.227500
C12	C	0.061000	0.193100	0.240750
Ni2	Ni	0.497400	0.123020	0.169715
O5	O	0.370650	0.325190	0.446450
O6	O	0.127450	0.433460	0.435100
O7	O	0.218450	0.323885	0.498650
O8	O	0.283250	0.440100	0.487100
N3	N	0.063950	0.078550	0.098100
N4	N	0.430550	0.176950	0.107550
C13	C	0.043900	0.020350	0.006700
H9	H	0.000100	0.006900	0.472050
C14	C	0.146600	0.001000	0.016850
C15	C	0.208550	0.022700	0.067700
H10	H	0.280100	0.011100	0.075250
C16	C	0.453850	0.240450	0.022050
H11	H	0.497550	0.254500	0.488900
C17	C	0.490150	0.198400	0.060850
H12	H	0.059550	0.184350	0.053950
C18	C	0.005750	0.059550	0.047500
H13	H	0.436050	0.073500	0.039550
C19	C	0.164250	0.061150	0.106850
H14	H	0.206650	0.075850	0.141300
C20	C	0.332250	0.197750	0.117300
H15	H	0.289650	0.182700	0.150350
C21	C	0.291300	0.239850	0.081300
H16	H	0.222300	0.253750	0.089550
C22	C	0.353950	0.261500	0.032300
C23	C	0.189000	0.455350	0.477500
C24	C	0.311000	0.306900	0.490750
Ni3	Ni	0.247400	0.376980	0.919715
O9	O	0.120650	0.174810	0.696450
O10	O	0.377450	0.066540	0.685100
O11	O	0.468450	0.176115	0.748650
O12	O	0.033250	0.059900	0.737100
N5	N	0.313950	0.421450	0.848100
N6	N	0.180550	0.323050	0.857550
C25	C	0.293900	0.479650	0.756700
H17	H	0.250100	0.493100	0.722050
C26	C	0.396600	0.499000	0.766850
C27	C	0.458550	0.477300	0.817700
H18	H	0.030100	0.488900	0.825250
C28	C	0.203850	0.259550	0.772050
H19	H	0.247550	0.245500	0.738900
C29	C	0.240150	0.301600	0.810850
H20	H	0.309550	0.315650	0.803950
C30	C	0.255750	0.440450	0.797500
H21	H	0.186050	0.426500	0.789550
C31	C	0.414250	0.438850	0.856850
H22	H	0.456650	0.424150	0.891300
C32	C	0.082250	0.302250	0.867300
H23	H	0.039650	0.317300	0.900350
C33	C	0.041300	0.260150	0.831300
H24	H	0.472300	0.246250	0.839550
C34	C	0.103950	0.238500	0.782300
C35	C	0.439000	0.044650	0.727500
C36	C	0.061000	0.193100	0.740750
Ni4	Ni	0.497400	0.123020	0.669715
O13	O	0.370650	0.325190	0.946450
O14	O	0.127450	0.433460	0.935100
O15	O	0.218450	0.323885	0.998650
O16	O	0.283250	0.440100	0.987100
N7	N	0.063950	0.078550	0.598100
N8	N	0.430550	0.176950	0.607550
C37	C	0.043900	0.020350	0.506700
H25	H	0.000100	0.006900	0.972050
C38	C	0.146600	0.001000	0.516850
C39	C	0.208550	0.022700	0.567700
H26	H	0.280100	0.011100	0.575250
C40	C	0.453850	0.240450	0.522050
H27	H	0.497550	0.254500	0.988900
C41	C	0.490150	0.198400	0.560850
H28	H	0.059550	0.184350	0.553950
C42	C	0.005750	0.059550	0.547500
H29	H	0.436050	0.073500	0.539550
C43	C	0.164250	0.061150	0.606850
H30	H	0.206650	0.075850	0.641300
C44	C	0.332250	0.197750	0.617300
H31	H	0.289650	0.182700	0.650350
C45	C	0.291300	0.239850	0.581300
H32	H	0.222300	0.253750	0.589550
C46	C	0.353950	0.261500	0.532300
C47	C	0.189000	0.455350	0.977500
C48	C	0.311000	0.306900	0.990750
Ni5	Ni	0.247400	0.876980	0.419715
O17	O	0.120650	0.674810	0.196450
O18	O	0.377450	0.566540	0.185100
O19	O	0.468450	0.676115	0.248650
O20	O	0.033250	0.559900	0.237100
N9	N	0.313950	0.921450	0.348100
N10	N	0.180550	0.823050	0.357550
C49	C	0.293900	0.979650	0.256700
H33	H	0.250100	0.993100	0.222050
C50	C	0.396600	0.999000	0.266850
C51	C	0.458550	0.977300	0.317700
H34	H	0.030100	0.988900	0.325250
C52	C	0.203850	0.759550	0.272050
H35	H	0.247550	0.745500	0.238900
C53	C	0.240150	0.801600	0.310850
H36	H	0.309550	0.815650	0.303950
C54	C	0.255750	0.940450	0.297500
H37	H	0.186050	0.926500	0.289550
C55	C	0.414250	0.938850	0.356850
H38	H	0.456650	0.924150	0.391300
C56	C	0.082250	0.802250	0.367300
H39	H	0.039650	0.817300	0.400350
C57	C	0.041300	0.760150	0.331300
H40	H	0.472300	0.746250	0.339550
C58	C	0.103950	0.738500	0.282300
C59	C	0.439000	0.544650	0.227500
C60	C	0.061000	0.693100	0.240750
Ni6	Ni	0.497400	0.623020	0.169715
O21	O	0.370650	0.825190	0.446450
O22	O	0.127450	0.933460	0.435100
O23	O	0.218450	0.823885	0.498650
O24	O	0.283250	0.940100	0.487100
N11	N	0.063950	0.578550	0.098100
N12	N	0.430550	0.676950	0.107550
C61	C	0.043900	0.520350	0.006700
H41	H	0.000100	0.506900	0.472050
C62	C	0.146600	0.501000	0.016850
C63	C	0.208550	0.522700	0.067700
H42	H	0.280100	0.511100	0.075250
C64	C	0.453850	0.740450	0.022050
H43	H	0.497550	0.754500	0.488900
C65	C	0.490150	0.698400	0.060850
H44	H	0.059550	0.684350	0.053950
C66	C	0.005750	0.559550	0.047500
H45	H	0.436050	0.573500	0.039550
C67	C	0.164250	0.561150	0.106850
H46	H	0.206650	0.575850	0.141300
C68	C	0.332250	0.697750	0.117300
H47	H	0.289650	0.682700	0.150350
C69	C	0.291300	0.739850	0.081300
H48	H	0.222300	0.753750	0.089550
C70	C	0.353950	0.761500	0.032300
C71	C	0.189000	0.955350	0.477500
C72	C	0.311000	0.806900	0.490750
Ni7	Ni	0.247400	0.876980	0.919715
O25	O	0.120650	0.674810	0.696450
O26	O	0.377450	0.566540	0.685100
O27	O	0.468450	0.676115	0.748650
O28	O	0.033250	0.559900	0.737100
N13	N	0.313950	0.921450	0.848100
N14	N	0.180550	0.823050	0.857550
C73	C	0.293900	0.979650	0.756700
H49	H	0.250100	0.993100	0.722050
C74	C	0.396600	0.999000	0.766850
C75	C	0.458550	0.977300	0.817700
H50	H	0.030100	0.988900	0.825250
C76	C	0.203850	0.759550	0.772050
H51	H	0.247550	0.745500	0.738900
C77	C	0.240150	0.801600	0.810850
H52	H	0.309550	0.815650	0.803950
C78	C	0.255750	0.940450	0.797500
H53	H	0.186050	0.926500	0.789550
C79	C	0.414250	0.938850	0.856850
H54	H	0.456650	0.924150	0.891300
C80	C	0.082250	0.802250	0.867300
H55	H	0.039650	0.817300	0.900350
C81	C	0.041300	0.760150	0.831300
H56	H	0.472300	0.746250	0.839550
C82	C	0.103950	0.738500	0.782300
C83	C	0.439000	0.544650	0.727500
C84	C	0.061000	0.693100	0.740750
Ni8	Ni	0.497400	0.623020	0.669715
O29	O	0.370650	0.825190	0.946450
O30	O	0.127450	0.933460	0.935100
O31	O	0.218450	0.823885	0.998650
O32	O	0.283250	0.940100	0.987100
N15	N	0.063950	0.578550	0.598100
N16	N	0.430550	0.676950	0.607550
C85	C	0.043900	0.520350	0.506700
H57	H	0.000100	0.506900	0.972050
C86	C	0.146600	0.501000	0.516850
C87	C	0.208550	0.522700	0.567700
H58	H	0.280100	0.511100	0.575250
C88	C	0.453850	0.740450	0.522050
H59	H	0.497550	0.754500	0.988900
C89	C	0.490150	0.698400	0.560850
H60	H	0.059550	0.684350	0.553950
C90	C	0.005750	0.559550	0.547500
H61	H	0.436050	0.573500	0.539550
C91	C	0.164250	0.561150	0.606850
H62	H	0.206650	0.575850	0.641300
C92	C	0.332250	0.697750	0.617300
H63	H	0.289650	0.682700	0.650350
C93	C	0.291300	0.739850	0.581300
H64	H	0.222300	0.753750	0.589550
C94	C	0.353950	0.761500	0.532300
C95	C	0.189000	0.955350	0.977500
C96	C	0.311000	0.806900	0.990750
Ni9	Ni	0.747400	0.376980	0.419715
O33	O	0.620650	0.174810	0.196450
O34	O	0.877450	0.066540	0.185100
O35	O	0.968450	0.176115	0.248650
O36	O	0.533250	0.059900	0.237100
N17	N	0.813950	0.421450	0.348100
N18	N	0.680550	0.323050	0.357550
C97	C	0.793900	0.479650	0.256700
H65	H	0.750100	0.493100	0.222050
C98	C	0.896600	0.499000	0.266850
C99	C	0.958550	0.477300	0.317700
H66	H	0.530100	0.488900	0.325250
C100	C	0.703850	0.259550	0.272050
H67	H	0.747550	0.245500	0.238900
C101	C	0.740150	0.301600	0.310850
H68	H	0.809550	0.315650	0.303950
C102	C	0.755750	0.440450	0.297500
H69	H	0.686050	0.426500	0.289550
C103	C	0.914250	0.438850	0.356850
H70	H	0.956650	0.424150	0.391300
C104	C	0.582250	0.302250	0.367300
H71	H	0.539650	0.317300	0.400350
C105	C	0.541300	0.260150	0.331300
H72	H	0.972300	0.246250	0.339550
C106	C	0.603950	0.238500	0.282300
C107	C	0.939000	0.044650	0.227500
C108	C	0.561000	0.193100	0.240750
Ni10	Ni	0.997400	0.123020	0.169715
O37	O	0.870650	0.325190	0.446450
O38	O	0.627450	0.433460	0.435100
O39	O	0.718450	0.323885	0.498650
O40	O	0.783250	0.440100	0.487100
N19	N	0.563950	0.078550	0.098100
N20	N	0.930550	0.176950	0.107550
C109	C	0.543900	0.020350	0.006700
H73	H	0.500100	0.006900	0.472050
C110	C	0.646600	0.001000	0.016850
C111	C	0.708550	0.022700	0.067700
H74	H	0.780100	0.011100	0.075250
C112	C	0.953850	0.240450	0.022050
H75	H	0.997550	0.254500	0.488900
C113	C	0.990150	0.198400	0.060850
H76	H	0.559550	0.184350	0.053950
C114	C	0.505750	0.059550	0.047500
H77	H	0.936050	0.073500	0.039550
C115	C	0.664250	0.061150	0.106850
H78	H	0.706650	0.075850	0.141300
C116	C	0.832250	0.197750	0.117300
H79	H	0.789650	0.182700	0.150350
C117	C	0.791300	0.239850	0.081300
H80	H	0.722300	0.253750	0.089550
C118	C	0.853950	0.261500	0.032300
C119	C	0.689000	0.455350	0.477500
C120	C	0.811000	0.306900	0.490750
Ni11	Ni	0.747400	0.376980	0.919715
O41	O	0.620650	0.174810	0.696450
O42	O	0.877450	0.066540	0.685100
O43	O	0.968450	0.176115	0.748650
O44	O	0.533250	0.059900	0.737100
N21	N	0.813950	0.421450	0.848100
N22	N	0.680550	0.323050	0.857550
C121	C	0.793900	0.479650	0.756700
H81	H	0.750100	0.493100	0.722050
C122	C	0.896600	0.499000	0.766850
C123	C	0.958550	0.477300	0.817700
H82	H	0.530100	0.488900	0.825250
C124	C	0.703850	0.259550	0.772050
H83	H	0.747550	0.245500	0.738900
C125	C	0.740150	0.301600	0.810850
H84	H	0.809550	0.315650	0.803950
C126	C	0.755750	0.440450	0.797500
H85	H	0.686050	0.426500	0.789550
C127	C	0.914250	0.438850	0.856850
H86	H	0.956650	0.424150	0.891300
C128	C	0.582250	0.302250	0.867300
H87	H	0.539650	0.317300	0.900350
C129	C	0.541300	0.260150	0.831300
H88	H	0.972300	0.246250	0.839550
C130	C	0.603950	0.238500	0.782300
C131	C	0.939000	0.044650	0.727500
C132	C	0.561000	0.193100	0.740750
Ni12	Ni	0.997400	0.123020	0.669715
O45	O	0.870650	0.325190	0.946450
O46	O	0.627450	0.433460	0.935100
O47	O	0.718450	0.323885	0.998650
O48	O	0.783250	0.440100	0.987100
N23	N	0.563950	0.078550	0.598100
N24	N	0.930550	0.176950	0.607550
C133	C	0.543900	0.020350	0.506700
H89	H	0.500100	0.006900	0.972050
C134	C	0.646600	0.001000	0.516850
C135	C	0.708550	0.022700	0.567700
H90	H	0.780100	0.011100	0.575250
C136	C	0.953850	0.240450	0.522050
H91	H	0.997550	0.254500	0.988900
C137	C	0.990150	0.198400	0.560850
H92	H	0.559550	0.184350	0.553950
C138	C	0.505750	0.059550	0.547500
H93	H	0.936050	0.073500	0.539550
C139	C	0.664250	0.061150	0.606850
H94	H	0.706650	0.075850	0.641300
C140	C	0.832250	0.197750	0.617300
H95	H	0.789650	0.182700	0.650350
C141	C	0.791300	0.239850	0.581300
H96	H	0.722300	0.253750	0.589550
C142	C	0.853950	0.261500	0.532300
C143	C	0.689000	0.455350	0.977500
C144	C	0.811000	0.306900	0.990750
Ni13	Ni	0.747400	0.876980	0.419715
O49	O	0.620650	0.674810	0.196450
O50	O	0.877450	0.566540	0.185100
O51	O	0.968450	0.676115	0.248650
O52	O	0.533250	0.559900	0.237100
N25	N	0.813950	0.921450	0.348100
N26	N	0.680550	0.823050	0.357550
C145	C	0.793900	0.979650	0.256700
H97	H	0.750100	0.993100	0.222050
C146	C	0.896600	0.999000	0.266850
C147	C	0.958550	0.977300	0.317700
H98	H	0.530100	0.988900	0.325250
C148	C	0.703850	0.759550	0.272050
H99	H	0.747550	0.745500	0.238900
C149	C	0.740150	0.801600	0.310850
H100	H	0.809550	0.815650	0.303950
C150	C	0.755750	0.940450	0.297500
H101	H	0.686050	0.926500	0.289550
C151	C	0.914250	0.938850	0.356850
H102	H	0.956650	0.924150	0.391300
C152	C	0.582250	0.802250	0.367300
H103	H	0.539650	0.817300	0.400350
C153	C	0.541300	0.760150	0.331300
H104	H	0.972300	0.746250	0.339550
C154	C	0.603950	0.738500	0.282300
C155	C	0.939000	0.544650	0.227500
C156	C	0.561000	0.693100	0.240750
Ni14	Ni	0.997400	0.623020	0.169715
O53	O	0.870650	0.825190	0.446450
O54	O	0.627450	0.933460	0.435100
O55	O	0.718450	0.823885	0.498650
O56	O	0.783250	0.940100	0.487100
N27	N	0.563950	0.578550	0.098100
N28	N	0.930550	0.676950	0.107550
C157	C	0.543900	0.520350	0.006700
H105	H	0.500100	0.506900	0.472050
C158	C	0.646600	0.501000	0.016850
C159	C	0.708550	0.522700	0.067700
H106	H	0.780100	0.511100	0.075250
C160	C	0.953850	0.740450	0.022050
H107	H	0.997550	0.754500	0.488900
C161	C	0.990150	0.698400	0.060850
H108	H	0.559550	0.684350	0.053950
C162	C	0.505750	0.559550	0.047500
H109	H	0.936050	0.573500	0.039550
C163	C	0.664250	0.561150	0.106850
H110	H	0.706650	0.575850	0.141300
C164	C	0.832250	0.697750	0.117300
H111	H	0.789650	0.682700	0.150350
C165	C	0.791300	0.739850	0.081300
H112	H	0.722300	0.753750	0.089550
C166	C	0.853950	0.761500	0.032300
C167	C	0.689000	0.955350	0.477500
C168	C	0.811000	0.806900	0.490750
Ni15	Ni	0.747400	0.876980	0.919715
O57	O	0.620650	0.674810	0.696450
O58	O	0.877450	0.566540	0.685100
O59	O	0.968450	0.676115	0.748650
O60	O	0.533250	0.559900	0.737100
N29	N	0.813950	0.921450	0.848100
N30	N	0.680550	0.823050	0.857550
C169	C	0.793900	0.979650	0.756700
H113	H	0.750100	0.993100	0.722050
C170	C	0.896600	0.999000	0.766850
C171	C	0.958550	0.977300	0.817700
H114	H	0.530100	0.988900	0.825250
C172	C	0.703850	0.759550	0.772050
H115	H	0.747550	0.745500	0.738900
C173	C	0.740150	0.801600	0.810850
H116	H	0.809550	0.815650	0.803950
C174	C	0.755750	0.940450	0.797500
H117	H	0.686050	0.926500	0.789550
C175	C	0.914250	0.938850	0.856850
H118	H	0.956650	0.924150	0.891300
C176	C	0.582250	0.802250	0.867300
H119	H	0.539650	0.817300	0.900350
C177	C	0.541300	0.760150	0.831300
H120	H	0.972300	0.746250	0.839550
C178	C	0.603950	0.738500	0.782300
C179	C	0.939000	0.544650	0.727500
C180	C	0.561000	0.693100	0.740750
Ni16	Ni	0.997400	0.623020	0.669715
O61	O	0.870650	0.825190	0.946450
O62	O	0.627450	0.933460	0.935100
O63	O	0.718450	0.823885	0.998650
O64	O	0.783250	0.940100	0.987100
N31	N	0.563950	0.578550	0.598100
N32	N	0.930550	0.676950	0.607550
C181	C	0.543900	0.520350	0.506700
H121	H	0.500100	0.506900	0.972050
C182	C	0.646600	0.501000	0.516850
C183	C	0.708550	0.522700	0.567700
H122	H	0.780100	0.511100	0.575250
C184	C	0.953850	0.740450	0.522050
H123	H	0.997550	0.754500	0.988900
C185	C	0.990150	0.698400	0.560850
H124	H	0.559550	0.684350	0.553950
C186	C	0.505750	0.559550	0.547500
H125	H	0.936050	0.573500	0.539550
C187	C	0.664250	0.561150	0.606850
H126	H	0.706650	0.575850	0.641300
C188	C	0.832250	0.697750	0.617300
H127	H	0.789650	0.682700	0.650350
C189	C	0.791300	0.739850	0.581300
H128	H	0.722300	0.753750	0.589550
C190	C	0.853950	0.761500	0.532300
C191	C	0.689000	0.955350	0.977500
C192	C	0.811000	0.806900	0.990750
