data_removed_atoms_NiPyC2_removed_atoms_NiPyC2_removed_atoms_NiPyC2_PM
_symmetry_space_group_name_H-M	'P1'
_cell_length_a	18.758400
_cell_length_b	37.570200
_cell_length_c	30.830400
_cell_angle_alpha	90.000000
_cell_angle_beta	91.269000
_cell_angle_gamma	90.000000
_symmetry_Int_Tables_number 1

loop_
_symmetry_equiv_pos_as_xyz
'x,y,z'

loop_
_atom_site_label
_atom_site_type_symbol
_atom_site_fract_x
_atom_site_fract_y
_atom_site_fract_z
_atom_site_charge
N1	N	0.099231	0.278094	0.191940	0.000000
H1	H	0.082295	0.258665	0.212954	0.000000
H2	H	0.064302	0.285273	0.167622	0.000000
N2	N	0.231089	0.216663	0.201809	0.000000
H3	H	0.247090	0.237413	0.221615	0.000000
H4	H	0.266682	0.208329	0.179380	0.000000
Ni1	Ni	0.164933	0.251320	0.279810	0.000000
O1	O	0.080433	0.116540	0.130967	0.000000
O2	O	0.251633	0.044360	0.123400	0.000000
O3	O	0.312300	0.117410	0.165767	0.000000
O4	O	0.022167	0.039933	0.158067	0.000000
N3	N	0.209300	0.280967	0.232067	0.000000
N4	N	0.120367	0.215367	0.238367	0.000000
C1	C	0.195933	0.319767	0.171133	0.000000
H5	H	0.166733	0.328733	0.148033	0.000000
C2	C	0.264400	0.332667	0.177900	0.000000
C3	C	0.305700	0.318200	0.211800	0.000000
H6	H	0.020067	0.325933	0.216833	0.000000
C4	C	0.135900	0.173033	0.181367	0.000000
H7	H	0.165033	0.163667	0.159267	0.000000
C5	C	0.160100	0.201067	0.207233	0.000000
C6	C	0.170500	0.293633	0.198333	0.000000
C7	C	0.276167	0.292567	0.237900	0.000000
H8	H	0.304433	0.282767	0.260867	0.000000
C8	C	0.054833	0.201500	0.244867	0.000000
H9	H	0.026433	0.211533	0.266900	0.000000
C9	C	0.027533	0.173433	0.220867	0.000000
H10	H	0.314867	0.164167	0.226367	0.000000
C10	C	0.069300	0.159000	0.188200	0.000000
C11	C	0.292667	0.029767	0.151667	0.000000
C12	C	0.040667	0.128733	0.160500	0.000000
N5	N	0.265898	-0.278094	0.358607	0.000000
H11	H	0.248962	-0.258665	0.379621	0.000000
H12	H	0.230969	-0.285273	0.334288	0.000000
N6	N	0.397755	-0.216663	0.368476	0.000000
H13	H	0.413756	-0.237413	0.388282	0.000000
H14	H	0.433349	-0.208329	0.346047	0.000000
Ni2	Ni	0.331600	-0.251320	0.446477	0.000000
O5	O	0.247100	-0.116540	0.297633	0.000000
O6	O	0.418300	-0.044360	0.290067	0.000000
O7	O	0.478967	-0.117410	0.332433	0.000000
O8	O	0.188833	-0.039933	0.324733	0.000000
N7	N	0.375967	-0.280967	0.398733	0.000000
N8	N	0.287033	-0.215367	0.405033	0.000000
C13	C	0.362600	-0.319767	0.337800	0.000000
H15	H	0.333400	-0.328733	0.314700	0.000000
C14	C	0.431067	-0.332667	0.344567	0.000000
C15	C	0.472367	-0.318200	0.378467	0.000000
H16	H	0.186733	-0.325933	0.383500	0.000000
C16	C	0.302567	-0.173033	0.348033	0.000000
H17	H	0.331700	-0.163667	0.325933	0.000000
C17	C	0.326767	-0.201067	0.373900	0.000000
C18	C	0.337167	-0.293633	0.365000	0.000000
C19	C	0.442833	-0.292567	0.404567	0.000000
H18	H	0.471100	-0.282767	0.427533	0.000000
C20	C	0.221500	-0.201500	0.411533	0.000000
H19	H	0.193100	-0.211533	0.433567	0.000000
C21	C	0.194200	-0.173433	0.387533	0.000000
H20	H	0.481533	-0.164167	0.393033	0.000000
C22	C	0.235967	-0.159000	0.354867	0.000000
C23	C	0.459333	-0.029767	0.318333	0.000000
C24	C	0.207333	-0.128733	0.327167	0.000000
N9	N	0.099231	0.278094	0.525274	0.000000
H21	H	0.082295	0.258665	0.546288	0.000000
H22	H	0.064302	0.285273	0.500955	0.000000
N10	N	0.231089	0.216663	0.535143	0.000000
H23	H	0.247090	0.237413	0.554948	0.000000
H24	H	0.266682	0.208329	0.512714	0.000000
Ni3	Ni	0.164933	0.251320	0.613143	0.000000
O9	O	0.080433	0.116540	0.464300	0.000000
O10	O	0.251633	0.044360	0.456733	0.000000
O11	O	0.312300	0.117410	0.499100	0.000000
O12	O	0.022167	0.039933	0.491400	0.000000
N11	N	0.209300	0.280967	0.565400	0.000000
N12	N	0.120367	0.215367	0.571700	0.000000
C25	C	0.195933	0.319767	0.504467	0.000000
H25	H	0.166733	0.328733	0.481367	0.000000
C26	C	0.264400	0.332667	0.511233	0.000000
C27	C	0.305700	0.318200	0.545133	0.000000
H26	H	0.020067	0.325933	0.550167	0.000000
C28	C	0.135900	0.173033	0.514700	0.000000
H27	H	0.165033	0.163667	0.492600	0.000000
C29	C	0.160100	0.201067	0.540567	0.000000
C30	C	0.170500	0.293633	0.531667	0.000000
C31	C	0.276167	0.292567	0.571233	0.000000
H28	H	0.304433	0.282767	0.594200	0.000000
C32	C	0.054833	0.201500	0.578200	0.000000
H29	H	0.026433	0.211533	0.600233	0.000000
C33	C	0.027533	0.173433	0.554200	0.000000
H30	H	0.314867	0.164167	0.559700	0.000000
C34	C	0.069300	0.159000	0.521533	0.000000
C35	C	0.292667	0.029767	0.485000	0.000000
C36	C	0.040667	0.128733	0.493833	0.000000
N13	N	0.265898	-0.278094	0.691940	0.000000
H31	H	0.248962	-0.258665	0.712954	0.000000
H32	H	0.230969	-0.285273	0.667622	0.000000
N14	N	0.397755	-0.216663	0.701809	0.000000
H33	H	0.413756	-0.237413	0.721615	0.000000
H34	H	0.433349	-0.208329	0.679380	0.000000
Ni4	Ni	0.331600	-0.251320	0.779810	0.000000
O13	O	0.247100	-0.116540	0.630967	0.000000
O14	O	0.418300	-0.044360	0.623400	0.000000
O15	O	0.478967	-0.117410	0.665767	0.000000
O16	O	0.188833	-0.039933	0.658067	0.000000
N15	N	0.375967	-0.280967	0.732067	0.000000
N16	N	0.287033	-0.215367	0.738367	0.000000
C37	C	0.362600	-0.319767	0.671133	0.000000
H35	H	0.333400	-0.328733	0.648033	0.000000
C38	C	0.431067	-0.332667	0.677900	0.000000
C39	C	0.472367	-0.318200	0.711800	0.000000
H36	H	0.186733	-0.325933	0.716833	0.000000
C40	C	0.302567	-0.173033	0.681367	0.000000
H37	H	0.331700	-0.163667	0.659267	0.000000
C41	C	0.326767	-0.201067	0.707233	0.000000
C42	C	0.337167	-0.293633	0.698333	0.000000
C43	C	0.442833	-0.292567	0.737900	0.000000
H38	H	0.471100	-0.282767	0.760867	0.000000
C44	C	0.221500	-0.201500	0.744867	0.000000
H39	H	0.193100	-0.211533	0.766900	0.000000
C45	C	0.194200	-0.173433	0.720867	0.000000
H40	H	0.481533	-0.164167	0.726367	0.000000
C46	C	0.235967	-0.159000	0.688200	0.000000
C47	C	0.459333	-0.029767	0.651667	0.000000
C48	C	0.207333	-0.128733	0.660500	0.000000
N17	N	0.099231	0.278094	0.858607	0.000000
H41	H	0.082295	0.258665	0.879621	0.000000
H42	H	0.064302	0.285273	0.834288	0.000000
N18	N	0.231089	0.216663	0.868476	0.000000
H43	H	0.247090	0.237413	0.888282	0.000000
H44	H	0.266682	0.208329	0.846047	0.000000
Ni5	Ni	0.164933	0.251320	0.946477	0.000000
O17	O	0.080433	0.116540	0.797633	0.000000
O18	O	0.251633	0.044360	0.790067	0.000000
O19	O	0.312300	0.117410	0.832433	0.000000
O20	O	0.022167	0.039933	0.824733	0.000000
N19	N	0.209300	0.280967	0.898733	0.000000
N20	N	0.120367	0.215367	0.905033	0.000000
C49	C	0.195933	0.319767	0.837800	0.000000
H45	H	0.166733	0.328733	0.814700	0.000000
C50	C	0.264400	0.332667	0.844567	0.000000
C51	C	0.305700	0.318200	0.878467	0.000000
H46	H	0.020067	0.325933	0.883500	0.000000
C52	C	0.135900	0.173033	0.848033	0.000000
H47	H	0.165033	0.163667	0.825933	0.000000
C53	C	0.160100	0.201067	0.873900	0.000000
C54	C	0.170500	0.293633	0.865000	0.000000
C55	C	0.276167	0.292567	0.904567	0.000000
H48	H	0.304433	0.282767	0.927533	0.000000
C56	C	0.054833	0.201500	0.911533	0.000000
H49	H	0.026433	0.211533	0.933567	0.000000
C57	C	0.027533	0.173433	0.887533	0.000000
H50	H	0.314867	0.164167	0.893033	0.000000
C58	C	0.069300	0.159000	0.854867	0.000000
C59	C	0.292667	0.029767	0.818333	0.000000
C60	C	0.040667	0.128733	0.827167	0.000000
N21	N	0.265898	-0.278094	1.025274	0.000000
H51	H	0.248962	-0.258665	1.046288	0.000000
H52	H	0.230969	-0.285273	1.000955	0.000000
N22	N	0.397755	-0.216663	1.035143	0.000000
H53	H	0.413756	-0.237413	1.054948	0.000000
H54	H	0.433349	-0.208329	1.012714	0.000000
Ni6	Ni	0.331600	-0.251320	1.113143	0.000000
O21	O	0.247100	-0.116540	0.964300	0.000000
O22	O	0.418300	-0.044360	0.956733	0.000000
O23	O	0.478967	-0.117410	0.999100	0.000000
O24	O	0.188833	-0.039933	0.991400	0.000000
N23	N	0.375967	-0.280967	1.065400	0.000000
N24	N	0.287033	-0.215367	1.071700	0.000000
C61	C	0.362600	-0.319767	1.004467	0.000000
H55	H	0.333400	-0.328733	0.981367	0.000000
C62	C	0.431067	-0.332667	1.011233	0.000000
C63	C	0.472367	-0.318200	1.045133	0.000000
H56	H	0.186733	-0.325933	1.050167	0.000000
C64	C	0.302567	-0.173033	1.014700	0.000000
H57	H	0.331700	-0.163667	0.992600	0.000000
C65	C	0.326767	-0.201067	1.040567	0.000000
C66	C	0.337167	-0.293633	1.031667	0.000000
C67	C	0.442833	-0.292567	1.071233	0.000000
H58	H	0.471100	-0.282767	1.094200	0.000000
C68	C	0.221500	-0.201500	1.078200	0.000000
H59	H	0.193100	-0.211533	1.100233	0.000000
C69	C	0.194200	-0.173433	1.054200	0.000000
H60	H	0.481533	-0.164167	1.059700	0.000000
C70	C	0.235967	-0.159000	1.021533	0.000000
C71	C	0.459333	-0.029767	0.985000	0.000000
C72	C	0.207333	-0.128733	0.993833	0.000000
N25	N	0.099231	0.611427	0.191940	0.000000
H61	H	0.082295	0.591998	0.212954	0.000000
H62	H	0.064302	0.618607	0.167622	0.000000
N26	N	0.231089	0.549996	0.201809	0.000000
H63	H	0.247090	0.570746	0.221615	0.000000
H64	H	0.266682	0.541662	0.179380	0.000000
Ni7	Ni	0.164933	0.584653	0.279810	0.000000
O25	O	0.080433	0.449873	0.130967	0.000000
O26	O	0.251633	0.377693	0.123400	0.000000
O27	O	0.312300	0.450743	0.165767	0.000000
O28	O	0.022167	0.373267	0.158067	0.000000
N27	N	0.209300	0.614300	0.232067	0.000000
N28	N	0.120367	0.548700	0.238367	0.000000
C73	C	0.195933	0.653100	0.171133	0.000000
H65	H	0.166733	0.662067	0.148033	0.000000
C74	C	0.264400	0.666000	0.177900	0.000000
C75	C	0.305700	0.651533	0.211800	0.000000
H66	H	0.020067	0.659267	0.216833	0.000000
C76	C	0.135900	0.506367	0.181367	0.000000
H67	H	0.165033	0.497000	0.159267	0.000000
C77	C	0.160100	0.534400	0.207233	0.000000
C78	C	0.170500	0.626967	0.198333	0.000000
C79	C	0.276167	0.625900	0.237900	0.000000
H68	H	0.304433	0.616100	0.260867	0.000000
C80	C	0.054833	0.534833	0.244867	0.000000
H69	H	0.026433	0.544867	0.266900	0.000000
C81	C	0.027533	0.506767	0.220867	0.000000
H70	H	0.314867	0.497500	0.226367	0.000000
C82	C	0.069300	0.492333	0.188200	0.000000
C83	C	0.292667	0.363100	0.151667	0.000000
C84	C	0.040667	0.462067	0.160500	0.000000
N29	N	0.265898	0.055240	0.358607	0.000000
H71	H	0.248962	0.074668	0.379621	0.000000
H72	H	0.230969	0.048060	0.334288	0.000000
N30	N	0.397755	0.116671	0.368476	0.000000
H73	H	0.413756	0.095920	0.388282	0.000000
H74	H	0.433349	0.125004	0.346047	0.000000
Ni8	Ni	0.331600	0.082013	0.446477	0.000000
O29	O	0.247100	0.216793	0.297633	0.000000
O30	O	0.418300	0.288973	0.290067	0.000000
O31	O	0.478967	0.215923	0.332433	0.000000
O32	O	0.188833	0.293400	0.324733	0.000000
N31	N	0.375967	0.052367	0.398733	0.000000
N32	N	0.287033	0.117967	0.405033	0.000000
C85	C	0.362600	0.013567	0.337800	0.000000
H75	H	0.333400	0.004600	0.314700	0.000000
C86	C	0.431067	0.000667	0.344567	0.000000
C87	C	0.472367	0.015133	0.378467	0.000000
H76	H	0.186733	0.007400	0.383500	0.000000
C88	C	0.302567	0.160300	0.348033	0.000000
H77	H	0.331700	0.169667	0.325933	0.000000
C89	C	0.326767	0.132267	0.373900	0.000000
C90	C	0.337167	0.039700	0.365000	0.000000
C91	C	0.442833	0.040767	0.404567	0.000000
H78	H	0.471100	0.050567	0.427533	0.000000
C92	C	0.221500	0.131833	0.411533	0.000000
H79	H	0.193100	0.121800	0.433567	0.000000
C93	C	0.194200	0.159900	0.387533	0.000000
H80	H	0.481533	0.169167	0.393033	0.000000
C94	C	0.235967	0.174333	0.354867	0.000000
C95	C	0.459333	0.303567	0.318333	0.000000
C96	C	0.207333	0.204600	0.327167	0.000000
N33	N	0.099231	0.611427	0.525274	0.000000
H81	H	0.082295	0.591998	0.546288	0.000000
H82	H	0.064302	0.618607	0.500955	0.000000
N34	N	0.231089	0.549996	0.535143	0.000000
H83	H	0.247090	0.570746	0.554948	0.000000
H84	H	0.266682	0.541662	0.512714	0.000000
Ni9	Ni	0.164933	0.584653	0.613143	0.000000
O33	O	0.080433	0.449873	0.464300	0.000000
O34	O	0.251633	0.377693	0.456733	0.000000
O35	O	0.312300	0.450743	0.499100	0.000000
O36	O	0.022167	0.373267	0.491400	0.000000
N35	N	0.209300	0.614300	0.565400	0.000000
N36	N	0.120367	0.548700	0.571700	0.000000
C97	C	0.195933	0.653100	0.504467	0.000000
H85	H	0.166733	0.662067	0.481367	0.000000
C98	C	0.264400	0.666000	0.511233	0.000000
C99	C	0.305700	0.651533	0.545133	0.000000
H86	H	0.020067	0.659267	0.550167	0.000000
C100	C	0.135900	0.506367	0.514700	0.000000
H87	H	0.165033	0.497000	0.492600	0.000000
C101	C	0.160100	0.534400	0.540567	0.000000
C102	C	0.170500	0.626967	0.531667	0.000000
C103	C	0.276167	0.625900	0.571233	0.000000
H88	H	0.304433	0.616100	0.594200	0.000000
C104	C	0.054833	0.534833	0.578200	0.000000
H89	H	0.026433	0.544867	0.600233	0.000000
C105	C	0.027533	0.506767	0.554200	0.000000
H90	H	0.314867	0.497500	0.559700	0.000000
C106	C	0.069300	0.492333	0.521533	0.000000
C107	C	0.292667	0.363100	0.485000	0.000000
C108	C	0.040667	0.462067	0.493833	0.000000
N37	N	0.265898	0.055240	0.691940	0.000000
H91	H	0.248962	0.074668	0.712954	0.000000
H92	H	0.230969	0.048060	0.667622	0.000000
N38	N	0.397755	0.116671	0.701809	0.000000
H93	H	0.413756	0.095920	0.721615	0.000000
H94	H	0.433349	0.125004	0.679380	0.000000
Ni10	Ni	0.331600	0.082013	0.779810	0.000000
O37	O	0.247100	0.216793	0.630967	0.000000
O38	O	0.418300	0.288973	0.623400	0.000000
O39	O	0.478967	0.215923	0.665767	0.000000
O40	O	0.188833	0.293400	0.658067	0.000000
N39	N	0.375967	0.052367	0.732067	0.000000
N40	N	0.287033	0.117967	0.738367	0.000000
C109	C	0.362600	0.013567	0.671133	0.000000
H95	H	0.333400	0.004600	0.648033	0.000000
C110	C	0.431067	0.000667	0.677900	0.000000
C111	C	0.472367	0.015133	0.711800	0.000000
H96	H	0.186733	0.007400	0.716833	0.000000
C112	C	0.302567	0.160300	0.681367	0.000000
H97	H	0.331700	0.169667	0.659267	0.000000
C113	C	0.326767	0.132267	0.707233	0.000000
C114	C	0.337167	0.039700	0.698333	0.000000
C115	C	0.442833	0.040767	0.737900	0.000000
H98	H	0.471100	0.050567	0.760867	0.000000
C116	C	0.221500	0.131833	0.744867	0.000000
H99	H	0.193100	0.121800	0.766900	0.000000
C117	C	0.194200	0.159900	0.720867	0.000000
H100	H	0.481533	0.169167	0.726367	0.000000
C118	C	0.235967	0.174333	0.688200	0.000000
C119	C	0.459333	0.303567	0.651667	0.000000
C120	C	0.207333	0.204600	0.660500	0.000000
N41	N	0.099231	0.611427	0.858607	0.000000
H101	H	0.082295	0.591998	0.879621	0.000000
H102	H	0.064302	0.618607	0.834288	0.000000
N42	N	0.231089	0.549996	0.868476	0.000000
H103	H	0.247090	0.570746	0.888282	0.000000
H104	H	0.266682	0.541662	0.846047	0.000000
Ni11	Ni	0.164933	0.584653	0.946477	0.000000
O41	O	0.080433	0.449873	0.797633	0.000000
O42	O	0.251633	0.377693	0.790067	0.000000
O43	O	0.312300	0.450743	0.832433	0.000000
O44	O	0.022167	0.373267	0.824733	0.000000
N43	N	0.209300	0.614300	0.898733	0.000000
N44	N	0.120367	0.548700	0.905033	0.000000
C121	C	0.195933	0.653100	0.837800	0.000000
H105	H	0.166733	0.662067	0.814700	0.000000
C122	C	0.264400	0.666000	0.844567	0.000000
C123	C	0.305700	0.651533	0.878467	0.000000
H106	H	0.020067	0.659267	0.883500	0.000000
C124	C	0.135900	0.506367	0.848033	0.000000
H107	H	0.165033	0.497000	0.825933	0.000000
C125	C	0.160100	0.534400	0.873900	0.000000
C126	C	0.170500	0.626967	0.865000	0.000000
C127	C	0.276167	0.625900	0.904567	0.000000
H108	H	0.304433	0.616100	0.927533	0.000000
C128	C	0.054833	0.534833	0.911533	0.000000
H109	H	0.026433	0.544867	0.933567	0.000000
C129	C	0.027533	0.506767	0.887533	0.000000
H110	H	0.314867	0.497500	0.893033	0.000000
C130	C	0.069300	0.492333	0.854867	0.000000
C131	C	0.292667	0.363100	0.818333	0.000000
C132	C	0.040667	0.462067	0.827167	0.000000
N45	N	0.265898	0.055240	1.025274	0.000000
H111	H	0.248962	0.074668	1.046288	0.000000
H112	H	0.230969	0.048060	1.000955	0.000000
N46	N	0.397755	0.116671	1.035143	0.000000
H113	H	0.413756	0.095920	1.054948	0.000000
H114	H	0.433349	0.125004	1.012714	0.000000
Ni12	Ni	0.331600	0.082013	1.113143	0.000000
O45	O	0.247100	0.216793	0.964300	0.000000
O46	O	0.418300	0.288973	0.956733	0.000000
O47	O	0.478967	0.215923	0.999100	0.000000
O48	O	0.188833	0.293400	0.991400	0.000000
N47	N	0.375967	0.052367	1.065400	0.000000
N48	N	0.287033	0.117967	1.071700	0.000000
C133	C	0.362600	0.013567	1.004467	0.000000
H115	H	0.333400	0.004600	0.981367	0.000000
C134	C	0.431067	0.000667	1.011233	0.000000
C135	C	0.472367	0.015133	1.045133	0.000000
H116	H	0.186733	0.007400	1.050167	0.000000
C136	C	0.302567	0.160300	1.014700	0.000000
H117	H	0.331700	0.169667	0.992600	0.000000
C137	C	0.326767	0.132267	1.040567	0.000000
C138	C	0.337167	0.039700	1.031667	0.000000
C139	C	0.442833	0.040767	1.071233	0.000000
H118	H	0.471100	0.050567	1.094200	0.000000
C140	C	0.221500	0.131833	1.078200	0.000000
H119	H	0.193100	0.121800	1.100233	0.000000
C141	C	0.194200	0.159900	1.054200	0.000000
H120	H	0.481533	0.169167	1.059700	0.000000
C142	C	0.235967	0.174333	1.021533	0.000000
C143	C	0.459333	0.303567	0.985000	0.000000
C144	C	0.207333	0.204600	0.993833	0.000000
N49	N	0.099231	0.944760	0.191940	0.000000
H121	H	0.082295	0.925332	0.212954	0.000000
H122	H	0.064302	0.951940	0.167622	0.000000
N50	N	0.231089	0.883329	0.201809	0.000000
H123	H	0.247090	0.904080	0.221615	0.000000
H124	H	0.266682	0.874996	0.179380	0.000000
Ni13	Ni	0.164933	0.917987	0.279810	0.000000
O49	O	0.080433	0.783207	0.130967	0.000000
O50	O	0.251633	0.711027	0.123400	0.000000
O51	O	0.312300	0.784077	0.165767	0.000000
O52	O	0.022167	0.706600	0.158067	0.000000
N51	N	0.209300	0.947633	0.232067	0.000000
N52	N	0.120367	0.882033	0.238367	0.000000
C145	C	0.195933	0.986433	0.171133	0.000000
H125	H	0.166733	0.995400	0.148033	0.000000
C146	C	0.264400	0.999333	0.177900	0.000000
C147	C	0.305700	0.984867	0.211800	0.000000
H126	H	0.020067	0.992600	0.216833	0.000000
C148	C	0.135900	0.839700	0.181367	0.000000
H127	H	0.165033	0.830333	0.159267	0.000000
C149	C	0.160100	0.867733	0.207233	0.000000
C150	C	0.170500	0.960300	0.198333	0.000000
C151	C	0.276167	0.959233	0.237900	0.000000
H128	H	0.304433	0.949433	0.260867	0.000000
C152	C	0.054833	0.868167	0.244867	0.000000
H129	H	0.026433	0.878200	0.266900	0.000000
C153	C	0.027533	0.840100	0.220867	0.000000
H130	H	0.314867	0.830833	0.226367	0.000000
C154	C	0.069300	0.825667	0.188200	0.000000
C155	C	0.292667	0.696433	0.151667	0.000000
C156	C	0.040667	0.795400	0.160500	0.000000
N53	N	0.265898	0.388573	0.358607	0.000000
H131	H	0.248962	0.408002	0.379621	0.000000
H132	H	0.230969	0.381393	0.334288	0.000000
N54	N	0.397755	0.450004	0.368476	0.000000
H133	H	0.413756	0.429254	0.388282	0.000000
H134	H	0.433349	0.458338	0.346047	0.000000
Ni14	Ni	0.331600	0.415347	0.446477	0.000000
O53	O	0.247100	0.550127	0.297633	0.000000
O54	O	0.418300	0.622307	0.290067	0.000000
O55	O	0.478967	0.549257	0.332433	0.000000
O56	O	0.188833	0.626733	0.324733	0.000000
N55	N	0.375967	0.385700	0.398733	0.000000
N56	N	0.287033	0.451300	0.405033	0.000000
C157	C	0.362600	0.346900	0.337800	0.000000
H135	H	0.333400	0.337933	0.314700	0.000000
C158	C	0.431067	0.334000	0.344567	0.000000
C159	C	0.472367	0.348467	0.378467	0.000000
H136	H	0.186733	0.340733	0.383500	0.000000
C160	C	0.302567	0.493633	0.348033	0.000000
H137	H	0.331700	0.503000	0.325933	0.000000
C161	C	0.326767	0.465600	0.373900	0.000000
C162	C	0.337167	0.373033	0.365000	0.000000
C163	C	0.442833	0.374100	0.404567	0.000000
H138	H	0.471100	0.383900	0.427533	0.000000
C164	C	0.221500	0.465167	0.411533	0.000000
H139	H	0.193100	0.455133	0.433567	0.000000
C165	C	0.194200	0.493233	0.387533	0.000000
H140	H	0.481533	0.502500	0.393033	0.000000
C166	C	0.235967	0.507667	0.354867	0.000000
C167	C	0.459333	0.636900	0.318333	0.000000
C168	C	0.207333	0.537933	0.327167	0.000000
N57	N	0.099231	0.944760	0.525274	0.000000
H141	H	0.082295	0.925332	0.546288	0.000000
H142	H	0.064302	0.951940	0.500955	0.000000
N58	N	0.231089	0.883329	0.535143	0.000000
H143	H	0.247090	0.904080	0.554948	0.000000
H144	H	0.266682	0.874996	0.512714	0.000000
Ni15	Ni	0.164933	0.917987	0.613143	0.000000
O57	O	0.080433	0.783207	0.464300	0.000000
O58	O	0.251633	0.711027	0.456733	0.000000
O59	O	0.312300	0.784077	0.499100	0.000000
O60	O	0.022167	0.706600	0.491400	0.000000
N59	N	0.209300	0.947633	0.565400	0.000000
N60	N	0.120367	0.882033	0.571700	0.000000
C169	C	0.195933	0.986433	0.504467	0.000000
H145	H	0.166733	0.995400	0.481367	0.000000
C170	C	0.264400	0.999333	0.511233	0.000000
C171	C	0.305700	0.984867	0.545133	0.000000
H146	H	0.020067	0.992600	0.550167	0.000000
C172	C	0.135900	0.839700	0.514700	0.000000
H147	H	0.165033	0.830333	0.492600	0.000000
C173	C	0.160100	0.867733	0.540567	0.000000
C174	C	0.170500	0.960300	0.531667	0.000000
C175	C	0.276167	0.959233	0.571233	0.000000
H148	H	0.304433	0.949433	0.594200	0.000000
C176	C	0.054833	0.868167	0.578200	0.000000
H149	H	0.026433	0.878200	0.600233	0.000000
C177	C	0.027533	0.840100	0.554200	0.000000
H150	H	0.314867	0.830833	0.559700	0.000000
C178	C	0.069300	0.825667	0.521533	0.000000
C179	C	0.292667	0.696433	0.485000	0.000000
C180	C	0.040667	0.795400	0.493833	0.000000
N61	N	0.265898	0.388573	0.691940	0.000000
H151	H	0.248962	0.408002	0.712954	0.000000
H152	H	0.230969	0.381393	0.667622	0.000000
N62	N	0.397755	0.450004	0.701809	0.000000
H153	H	0.413756	0.429254	0.721615	0.000000
H154	H	0.433349	0.458338	0.679380	0.000000
Ni16	Ni	0.331600	0.415347	0.779810	0.000000
O61	O	0.247100	0.550127	0.630967	0.000000
O62	O	0.418300	0.622307	0.623400	0.000000
O63	O	0.478967	0.549257	0.665767	0.000000
O64	O	0.188833	0.626733	0.658067	0.000000
N63	N	0.375967	0.385700	0.732067	0.000000
N64	N	0.287033	0.451300	0.738367	0.000000
C181	C	0.362600	0.346900	0.671133	0.000000
H155	H	0.333400	0.337933	0.648033	0.000000
C182	C	0.431067	0.334000	0.677900	0.000000
C183	C	0.472367	0.348467	0.711800	0.000000
H156	H	0.186733	0.340733	0.716833	0.000000
C184	C	0.302567	0.493633	0.681367	0.000000
H157	H	0.331700	0.503000	0.659267	0.000000
C185	C	0.326767	0.465600	0.707233	0.000000
C186	C	0.337167	0.373033	0.698333	0.000000
C187	C	0.442833	0.374100	0.737900	0.000000
H158	H	0.471100	0.383900	0.760867	0.000000
C188	C	0.221500	0.465167	0.744867	0.000000
H159	H	0.193100	0.455133	0.766900	0.000000
C189	C	0.194200	0.493233	0.720867	0.000000
H160	H	0.481533	0.502500	0.726367	0.000000
C190	C	0.235967	0.507667	0.688200	0.000000
C191	C	0.459333	0.636900	0.651667	0.000000
C192	C	0.207333	0.537933	0.660500	0.000000
N65	N	0.099231	0.944760	0.858607	0.000000
H161	H	0.082295	0.925332	0.879621	0.000000
H162	H	0.064302	0.951940	0.834288	0.000000
N66	N	0.231089	0.883329	0.868476	0.000000
H163	H	0.247090	0.904080	0.888282	0.000000
H164	H	0.266682	0.874996	0.846047	0.000000
Ni17	Ni	0.164933	0.917987	0.946477	0.000000
O65	O	0.080433	0.783207	0.797633	0.000000
O66	O	0.251633	0.711027	0.790067	0.000000
O67	O	0.312300	0.784077	0.832433	0.000000
O68	O	0.022167	0.706600	0.824733	0.000000
N67	N	0.209300	0.947633	0.898733	0.000000
N68	N	0.120367	0.882033	0.905033	0.000000
C193	C	0.195933	0.986433	0.837800	0.000000
H165	H	0.166733	0.995400	0.814700	0.000000
C194	C	0.264400	0.999333	0.844567	0.000000
C195	C	0.305700	0.984867	0.878467	0.000000
H166	H	0.020067	0.992600	0.883500	0.000000
C196	C	0.135900	0.839700	0.848033	0.000000
H167	H	0.165033	0.830333	0.825933	0.000000
C197	C	0.160100	0.867733	0.873900	0.000000
C198	C	0.170500	0.960300	0.865000	0.000000
C199	C	0.276167	0.959233	0.904567	0.000000
H168	H	0.304433	0.949433	0.927533	0.000000
C200	C	0.054833	0.868167	0.911533	0.000000
H169	H	0.026433	0.878200	0.933567	0.000000
C201	C	0.027533	0.840100	0.887533	0.000000
H170	H	0.314867	0.830833	0.893033	0.000000
C202	C	0.069300	0.825667	0.854867	0.000000
C203	C	0.292667	0.696433	0.818333	0.000000
C204	C	0.040667	0.795400	0.827167	0.000000
N69	N	0.265898	0.388573	1.025274	0.000000
H171	H	0.248962	0.408002	1.046288	0.000000
H172	H	0.230969	0.381393	1.000955	0.000000
N70	N	0.397755	0.450004	1.035143	0.000000
H173	H	0.413756	0.429254	1.054948	0.000000
H174	H	0.433349	0.458338	1.012714	0.000000
Ni18	Ni	0.331600	0.415347	1.113143	0.000000
O69	O	0.247100	0.550127	0.964300	0.000000
O70	O	0.418300	0.622307	0.956733	0.000000
O71	O	0.478967	0.549257	0.999100	0.000000
O72	O	0.188833	0.626733	0.991400	0.000000
N71	N	0.375967	0.385700	1.065400	0.000000
N72	N	0.287033	0.451300	1.071700	0.000000
C205	C	0.362600	0.346900	1.004467	0.000000
H175	H	0.333400	0.337933	0.981367	0.000000
C206	C	0.431067	0.334000	1.011233	0.000000
C207	C	0.472367	0.348467	1.045133	0.000000
H176	H	0.186733	0.340733	1.050167	0.000000
C208	C	0.302567	0.493633	1.014700	0.000000
H177	H	0.331700	0.503000	0.992600	0.000000
C209	C	0.326767	0.465600	1.040567	0.000000
C210	C	0.337167	0.373033	1.031667	0.000000
C211	C	0.442833	0.374100	1.071233	0.000000
H178	H	0.471100	0.383900	1.094200	0.000000
C212	C	0.221500	0.465167	1.078200	0.000000
H179	H	0.193100	0.455133	1.100233	0.000000
C213	C	0.194200	0.493233	1.054200	0.000000
H180	H	0.481533	0.502500	1.059700	0.000000
C214	C	0.235967	0.507667	1.021533	0.000000
C215	C	0.459333	0.636900	0.985000	0.000000
C216	C	0.207333	0.537933	0.993833	0.000000
N73	N	0.432564	0.278094	0.191940	0.000000
H181	H	0.415629	0.258665	0.212954	0.000000
H182	H	0.397635	0.285273	0.167622	0.000000
N74	N	0.564422	0.216663	0.201809	0.000000
H183	H	0.580423	0.237413	0.221615	0.000000
H184	H	0.600015	0.208329	0.179380	0.000000
Ni19	Ni	0.498267	0.251320	0.279810	0.000000
O73	O	0.413767	0.116540	0.130967	0.000000
O74	O	0.584967	0.044360	0.123400	0.000000
O75	O	0.645633	0.117410	0.165767	0.000000
O76	O	0.355500	0.039933	0.158067	0.000000
N75	N	0.542633	0.280967	0.232067	0.000000
N76	N	0.453700	0.215367	0.238367	0.000000
C217	C	0.529267	0.319767	0.171133	0.000000
H185	H	0.500067	0.328733	0.148033	0.000000
C218	C	0.597733	0.332667	0.177900	0.000000
C219	C	0.639033	0.318200	0.211800	0.000000
H186	H	0.353400	0.325933	0.216833	0.000000
C220	C	0.469233	0.173033	0.181367	0.000000
H187	H	0.498367	0.163667	0.159267	0.000000
C221	C	0.493433	0.201067	0.207233	0.000000
C222	C	0.503833	0.293633	0.198333	0.000000
C223	C	0.609500	0.292567	0.237900	0.000000
H188	H	0.637767	0.282767	0.260867	0.000000
C224	C	0.388167	0.201500	0.244867	0.000000
H189	H	0.359767	0.211533	0.266900	0.000000
C225	C	0.360867	0.173433	0.220867	0.000000
H190	H	0.648200	0.164167	0.226367	0.000000
C226	C	0.402633	0.159000	0.188200	0.000000
C227	C	0.626000	0.029767	0.151667	0.000000
C228	C	0.374000	0.128733	0.160500	0.000000
N77	N	0.599231	-0.278094	0.358607	0.000000
H191	H	0.582295	-0.258665	0.379621	0.000000
H192	H	0.564302	-0.285273	0.334288	0.000000
N78	N	0.731089	-0.216663	0.368476	0.000000
H193	H	0.747090	-0.237413	0.388282	0.000000
H194	H	0.766682	-0.208329	0.346047	0.000000
Ni20	Ni	0.664933	-0.251320	0.446477	0.000000
O77	O	0.580433	-0.116540	0.297633	0.000000
O78	O	0.751633	-0.044360	0.290067	0.000000
O79	O	0.812300	-0.117410	0.332433	0.000000
O80	O	0.522167	-0.039933	0.324733	0.000000
N79	N	0.709300	-0.280967	0.398733	0.000000
N80	N	0.620367	-0.215367	0.405033	0.000000
C229	C	0.695933	-0.319767	0.337800	0.000000
H195	H	0.666733	-0.328733	0.314700	0.000000
C230	C	0.764400	-0.332667	0.344567	0.000000
C231	C	0.805700	-0.318200	0.378467	0.000000
H196	H	0.520067	-0.325933	0.383500	0.000000
C232	C	0.635900	-0.173033	0.348033	0.000000
H197	H	0.665033	-0.163667	0.325933	0.000000
C233	C	0.660100	-0.201067	0.373900	0.000000
C234	C	0.670500	-0.293633	0.365000	0.000000
C235	C	0.776167	-0.292567	0.404567	0.000000
H198	H	0.804433	-0.282767	0.427533	0.000000
C236	C	0.554833	-0.201500	0.411533	0.000000
H199	H	0.526433	-0.211533	0.433567	0.000000
C237	C	0.527533	-0.173433	0.387533	0.000000
H200	H	0.814867	-0.164167	0.393033	0.000000
C238	C	0.569300	-0.159000	0.354867	0.000000
C239	C	0.792667	-0.029767	0.318333	0.000000
C240	C	0.540667	-0.128733	0.327167	0.000000
N81	N	0.432564	0.278094	0.525274	0.000000
H201	H	0.415629	0.258665	0.546288	0.000000
H202	H	0.397635	0.285273	0.500955	0.000000
N82	N	0.564422	0.216663	0.535143	0.000000
H203	H	0.580423	0.237413	0.554948	0.000000
H204	H	0.600015	0.208329	0.512714	0.000000
Ni21	Ni	0.498267	0.251320	0.613143	0.000000
O81	O	0.413767	0.116540	0.464300	0.000000
O82	O	0.584967	0.044360	0.456733	0.000000
O83	O	0.645633	0.117410	0.499100	0.000000
O84	O	0.355500	0.039933	0.491400	0.000000
N83	N	0.542633	0.280967	0.565400	0.000000
N84	N	0.453700	0.215367	0.571700	0.000000
C241	C	0.529267	0.319767	0.504467	0.000000
H205	H	0.500067	0.328733	0.481367	0.000000
C242	C	0.597733	0.332667	0.511233	0.000000
C243	C	0.639033	0.318200	0.545133	0.000000
H206	H	0.353400	0.325933	0.550167	0.000000
C244	C	0.469233	0.173033	0.514700	0.000000
H207	H	0.498367	0.163667	0.492600	0.000000
C245	C	0.493433	0.201067	0.540567	0.000000
C246	C	0.503833	0.293633	0.531667	0.000000
C247	C	0.609500	0.292567	0.571233	0.000000
H208	H	0.637767	0.282767	0.594200	0.000000
C248	C	0.388167	0.201500	0.578200	0.000000
H209	H	0.359767	0.211533	0.600233	0.000000
C249	C	0.360867	0.173433	0.554200	0.000000
H210	H	0.648200	0.164167	0.559700	0.000000
C250	C	0.402633	0.159000	0.521533	0.000000
C251	C	0.626000	0.029767	0.485000	0.000000
C252	C	0.374000	0.128733	0.493833	0.000000
N85	N	0.599231	-0.278094	0.691940	0.000000
H211	H	0.582295	-0.258665	0.712954	0.000000
H212	H	0.564302	-0.285273	0.667622	0.000000
N86	N	0.731089	-0.216663	0.701809	0.000000
H213	H	0.747090	-0.237413	0.721615	0.000000
H214	H	0.766682	-0.208329	0.679380	0.000000
Ni22	Ni	0.664933	-0.251320	0.779810	0.000000
O85	O	0.580433	-0.116540	0.630967	0.000000
O86	O	0.751633	-0.044360	0.623400	0.000000
O87	O	0.812300	-0.117410	0.665767	0.000000
O88	O	0.522167	-0.039933	0.658067	0.000000
N87	N	0.709300	-0.280967	0.732067	0.000000
N88	N	0.620367	-0.215367	0.738367	0.000000
C253	C	0.695933	-0.319767	0.671133	0.000000
H215	H	0.666733	-0.328733	0.648033	0.000000
C254	C	0.764400	-0.332667	0.677900	0.000000
C255	C	0.805700	-0.318200	0.711800	0.000000
H216	H	0.520067	-0.325933	0.716833	0.000000
C256	C	0.635900	-0.173033	0.681367	0.000000
H217	H	0.665033	-0.163667	0.659267	0.000000
C257	C	0.660100	-0.201067	0.707233	0.000000
C258	C	0.670500	-0.293633	0.698333	0.000000
C259	C	0.776167	-0.292567	0.737900	0.000000
H218	H	0.804433	-0.282767	0.760867	0.000000
C260	C	0.554833	-0.201500	0.744867	0.000000
H219	H	0.526433	-0.211533	0.766900	0.000000
C261	C	0.527533	-0.173433	0.720867	0.000000
H220	H	0.814867	-0.164167	0.726367	0.000000
C262	C	0.569300	-0.159000	0.688200	0.000000
C263	C	0.792667	-0.029767	0.651667	0.000000
C264	C	0.540667	-0.128733	0.660500	0.000000
N89	N	0.432564	0.278094	0.858607	0.000000
H221	H	0.415629	0.258665	0.879621	0.000000
H222	H	0.397635	0.285273	0.834288	0.000000
N90	N	0.564422	0.216663	0.868476	0.000000
H223	H	0.580423	0.237413	0.888282	0.000000
H224	H	0.600015	0.208329	0.846047	0.000000
Ni23	Ni	0.498267	0.251320	0.946477	0.000000
O89	O	0.413767	0.116540	0.797633	0.000000
O90	O	0.584967	0.044360	0.790067	0.000000
O91	O	0.645633	0.117410	0.832433	0.000000
O92	O	0.355500	0.039933	0.824733	0.000000
N91	N	0.542633	0.280967	0.898733	0.000000
N92	N	0.453700	0.215367	0.905033	0.000000
C265	C	0.529267	0.319767	0.837800	0.000000
H225	H	0.500067	0.328733	0.814700	0.000000
C266	C	0.597733	0.332667	0.844567	0.000000
C267	C	0.639033	0.318200	0.878467	0.000000
H226	H	0.353400	0.325933	0.883500	0.000000
C268	C	0.469233	0.173033	0.848033	0.000000
H227	H	0.498367	0.163667	0.825933	0.000000
C269	C	0.493433	0.201067	0.873900	0.000000
C270	C	0.503833	0.293633	0.865000	0.000000
C271	C	0.609500	0.292567	0.904567	0.000000
H228	H	0.637767	0.282767	0.927533	0.000000
C272	C	0.388167	0.201500	0.911533	0.000000
H229	H	0.359767	0.211533	0.933567	0.000000
C273	C	0.360867	0.173433	0.887533	0.000000
H230	H	0.648200	0.164167	0.893033	0.000000
C274	C	0.402633	0.159000	0.854867	0.000000
C275	C	0.626000	0.029767	0.818333	0.000000
C276	C	0.374000	0.128733	0.827167	0.000000
N93	N	0.599231	-0.278094	1.025274	0.000000
H231	H	0.582295	-0.258665	1.046288	0.000000
H232	H	0.564302	-0.285273	1.000955	0.000000
N94	N	0.731089	-0.216663	1.035143	0.000000
H233	H	0.747090	-0.237413	1.054948	0.000000
H234	H	0.766682	-0.208329	1.012714	0.000000
Ni24	Ni	0.664933	-0.251320	1.113143	0.000000
O93	O	0.580433	-0.116540	0.964300	0.000000
O94	O	0.751633	-0.044360	0.956733	0.000000
O95	O	0.812300	-0.117410	0.999100	0.000000
O96	O	0.522167	-0.039933	0.991400	0.000000
N95	N	0.709300	-0.280967	1.065400	0.000000
N96	N	0.620367	-0.215367	1.071700	0.000000
C277	C	0.695933	-0.319767	1.004467	0.000000
H235	H	0.666733	-0.328733	0.981367	0.000000
C278	C	0.764400	-0.332667	1.011233	0.000000
C279	C	0.805700	-0.318200	1.045133	0.000000
H236	H	0.520067	-0.325933	1.050167	0.000000
C280	C	0.635900	-0.173033	1.014700	0.000000
H237	H	0.665033	-0.163667	0.992600	0.000000
C281	C	0.660100	-0.201067	1.040567	0.000000
C282	C	0.670500	-0.293633	1.031667	0.000000
C283	C	0.776167	-0.292567	1.071233	0.000000
H238	H	0.804433	-0.282767	1.094200	0.000000
C284	C	0.554833	-0.201500	1.078200	0.000000
H239	H	0.526433	-0.211533	1.100233	0.000000
C285	C	0.527533	-0.173433	1.054200	0.000000
H240	H	0.814867	-0.164167	1.059700	0.000000
C286	C	0.569300	-0.159000	1.021533	0.000000
C287	C	0.792667	-0.029767	0.985000	0.000000
C288	C	0.540667	-0.128733	0.993833	0.000000
N97	N	0.432564	0.611427	0.191940	0.000000
H241	H	0.415629	0.591998	0.212954	0.000000
H242	H	0.397635	0.618607	0.167622	0.000000
N98	N	0.564422	0.549996	0.201809	0.000000
H243	H	0.580423	0.570746	0.221615	0.000000
H244	H	0.600015	0.541662	0.179380	0.000000
Ni25	Ni	0.498267	0.584653	0.279810	0.000000
O97	O	0.413767	0.449873	0.130967	0.000000
O98	O	0.584967	0.377693	0.123400	0.000000
O99	O	0.645633	0.450743	0.165767	0.000000
O100	O	0.355500	0.373267	0.158067	0.000000
N99	N	0.542633	0.614300	0.232067	0.000000
N100	N	0.453700	0.548700	0.238367	0.000000
C289	C	0.529267	0.653100	0.171133	0.000000
H245	H	0.500067	0.662067	0.148033	0.000000
C290	C	0.597733	0.666000	0.177900	0.000000
C291	C	0.639033	0.651533	0.211800	0.000000
H246	H	0.353400	0.659267	0.216833	0.000000
C292	C	0.469233	0.506367	0.181367	0.000000
H247	H	0.498367	0.497000	0.159267	0.000000
C293	C	0.493433	0.534400	0.207233	0.000000
C294	C	0.503833	0.626967	0.198333	0.000000
C295	C	0.609500	0.625900	0.237900	0.000000
H248	H	0.637767	0.616100	0.260867	0.000000
C296	C	0.388167	0.534833	0.244867	0.000000
H249	H	0.359767	0.544867	0.266900	0.000000
C297	C	0.360867	0.506767	0.220867	0.000000
H250	H	0.648200	0.497500	0.226367	0.000000
C298	C	0.402633	0.492333	0.188200	0.000000
C299	C	0.626000	0.363100	0.151667	0.000000
C300	C	0.374000	0.462067	0.160500	0.000000
N101	N	0.599231	0.055240	0.358607	0.000000
H251	H	0.582295	0.074668	0.379621	0.000000
H252	H	0.564302	0.048060	0.334288	0.000000
N102	N	0.731089	0.116671	0.368476	0.000000
H253	H	0.747090	0.095920	0.388282	0.000000
H254	H	0.766682	0.125004	0.346047	0.000000
Ni26	Ni	0.664933	0.082013	0.446477	0.000000
O101	O	0.580433	0.216793	0.297633	0.000000
O102	O	0.751633	0.288973	0.290067	0.000000
O103	O	0.812300	0.215923	0.332433	0.000000
O104	O	0.522167	0.293400	0.324733	0.000000
N103	N	0.709300	0.052367	0.398733	0.000000
N104	N	0.620367	0.117967	0.405033	0.000000
C301	C	0.695933	0.013567	0.337800	0.000000
H255	H	0.666733	0.004600	0.314700	0.000000
C302	C	0.764400	0.000667	0.344567	0.000000
C303	C	0.805700	0.015133	0.378467	0.000000
H256	H	0.520067	0.007400	0.383500	0.000000
C304	C	0.635900	0.160300	0.348033	0.000000
H257	H	0.665033	0.169667	0.325933	0.000000
C305	C	0.660100	0.132267	0.373900	0.000000
C306	C	0.670500	0.039700	0.365000	0.000000
C307	C	0.776167	0.040767	0.404567	0.000000
H258	H	0.804433	0.050567	0.427533	0.000000
C308	C	0.554833	0.131833	0.411533	0.000000
H259	H	0.526433	0.121800	0.433567	0.000000
C309	C	0.527533	0.159900	0.387533	0.000000
H260	H	0.814867	0.169167	0.393033	0.000000
C310	C	0.569300	0.174333	0.354867	0.000000
C311	C	0.792667	0.303567	0.318333	0.000000
C312	C	0.540667	0.204600	0.327167	0.000000
N105	N	0.432564	0.611427	0.525274	0.000000
H261	H	0.415629	0.591998	0.546288	0.000000
H262	H	0.397635	0.618607	0.500955	0.000000
N106	N	0.564422	0.549996	0.535143	0.000000
H263	H	0.580423	0.570746	0.554948	0.000000
H264	H	0.600015	0.541662	0.512714	0.000000
Ni27	Ni	0.498267	0.584653	0.613143	0.000000
O105	O	0.413767	0.449873	0.464300	0.000000
O106	O	0.584967	0.377693	0.456733	0.000000
O107	O	0.645633	0.450743	0.499100	0.000000
O108	O	0.355500	0.373267	0.491400	0.000000
N107	N	0.542633	0.614300	0.565400	0.000000
N108	N	0.453700	0.548700	0.571700	0.000000
C313	C	0.529267	0.653100	0.504467	0.000000
H265	H	0.500067	0.662067	0.481367	0.000000
C314	C	0.597733	0.666000	0.511233	0.000000
C315	C	0.639033	0.651533	0.545133	0.000000
H266	H	0.353400	0.659267	0.550167	0.000000
C316	C	0.469233	0.506367	0.514700	0.000000
H267	H	0.498367	0.497000	0.492600	0.000000
C317	C	0.493433	0.534400	0.540567	0.000000
C318	C	0.503833	0.626967	0.531667	0.000000
C319	C	0.609500	0.625900	0.571233	0.000000
H268	H	0.637767	0.616100	0.594200	0.000000
C320	C	0.388167	0.534833	0.578200	0.000000
H269	H	0.359767	0.544867	0.600233	0.000000
C321	C	0.360867	0.506767	0.554200	0.000000
H270	H	0.648200	0.497500	0.559700	0.000000
C322	C	0.402633	0.492333	0.521533	0.000000
C323	C	0.626000	0.363100	0.485000	0.000000
C324	C	0.374000	0.462067	0.493833	0.000000
N109	N	0.599231	0.055240	0.691940	0.000000
H271	H	0.582295	0.074668	0.712954	0.000000
H272	H	0.564302	0.048060	0.667622	0.000000
N110	N	0.731089	0.116671	0.701809	0.000000
H273	H	0.747090	0.095920	0.721615	0.000000
H274	H	0.766682	0.125004	0.679380	0.000000
Ni28	Ni	0.664933	0.082013	0.779810	0.000000
O109	O	0.580433	0.216793	0.630967	0.000000
O110	O	0.751633	0.288973	0.623400	0.000000
O111	O	0.812300	0.215923	0.665767	0.000000
O112	O	0.522167	0.293400	0.658067	0.000000
N111	N	0.709300	0.052367	0.732067	0.000000
N112	N	0.620367	0.117967	0.738367	0.000000
C325	C	0.695933	0.013567	0.671133	0.000000
H275	H	0.666733	0.004600	0.648033	0.000000
C326	C	0.764400	0.000667	0.677900	0.000000
C327	C	0.805700	0.015133	0.711800	0.000000
H276	H	0.520067	0.007400	0.716833	0.000000
C328	C	0.635900	0.160300	0.681367	0.000000
H277	H	0.665033	0.169667	0.659267	0.000000
C329	C	0.660100	0.132267	0.707233	0.000000
C330	C	0.670500	0.039700	0.698333	0.000000
C331	C	0.776167	0.040767	0.737900	0.000000
H278	H	0.804433	0.050567	0.760867	0.000000
C332	C	0.554833	0.131833	0.744867	0.000000
H279	H	0.526433	0.121800	0.766900	0.000000
C333	C	0.527533	0.159900	0.720867	0.000000
H280	H	0.814867	0.169167	0.726367	0.000000
C334	C	0.569300	0.174333	0.688200	0.000000
C335	C	0.792667	0.303567	0.651667	0.000000
C336	C	0.540667	0.204600	0.660500	0.000000
N113	N	0.432564	0.611427	0.858607	0.000000
H281	H	0.415629	0.591998	0.879621	0.000000
H282	H	0.397635	0.618607	0.834288	0.000000
N114	N	0.564422	0.549996	0.868476	0.000000
H283	H	0.580423	0.570746	0.888282	0.000000
H284	H	0.600015	0.541662	0.846047	0.000000
Ni29	Ni	0.498267	0.584653	0.946477	0.000000
O113	O	0.413767	0.449873	0.797633	0.000000
O114	O	0.584967	0.377693	0.790067	0.000000
O115	O	0.645633	0.450743	0.832433	0.000000
O116	O	0.355500	0.373267	0.824733	0.000000
N115	N	0.542633	0.614300	0.898733	0.000000
N116	N	0.453700	0.548700	0.905033	0.000000
C337	C	0.529267	0.653100	0.837800	0.000000
H285	H	0.500067	0.662067	0.814700	0.000000
C338	C	0.597733	0.666000	0.844567	0.000000
C339	C	0.639033	0.651533	0.878467	0.000000
H286	H	0.353400	0.659267	0.883500	0.000000
C340	C	0.469233	0.506367	0.848033	0.000000
H287	H	0.498367	0.497000	0.825933	0.000000
C341	C	0.493433	0.534400	0.873900	0.000000
C342	C	0.503833	0.626967	0.865000	0.000000
C343	C	0.609500	0.625900	0.904567	0.000000
H288	H	0.637767	0.616100	0.927533	0.000000
C344	C	0.388167	0.534833	0.911533	0.000000
H289	H	0.359767	0.544867	0.933567	0.000000
C345	C	0.360867	0.506767	0.887533	0.000000
H290	H	0.648200	0.497500	0.893033	0.000000
C346	C	0.402633	0.492333	0.854867	0.000000
C347	C	0.626000	0.363100	0.818333	0.000000
C348	C	0.374000	0.462067	0.827167	0.000000
N117	N	0.599231	0.055240	1.025274	0.000000
H291	H	0.582295	0.074668	1.046288	0.000000
H292	H	0.564302	0.048060	1.000955	0.000000
N118	N	0.731089	0.116671	1.035143	0.000000
H293	H	0.747090	0.095920	1.054948	0.000000
H294	H	0.766682	0.125004	1.012714	0.000000
Ni30	Ni	0.664933	0.082013	1.113143	0.000000
O117	O	0.580433	0.216793	0.964300	0.000000
O118	O	0.751633	0.288973	0.956733	0.000000
O119	O	0.812300	0.215923	0.999100	0.000000
O120	O	0.522167	0.293400	0.991400	0.000000
N119	N	0.709300	0.052367	1.065400	0.000000
N120	N	0.620367	0.117967	1.071700	0.000000
C349	C	0.695933	0.013567	1.004467	0.000000
H295	H	0.666733	0.004600	0.981367	0.000000
C350	C	0.764400	0.000667	1.011233	0.000000
C351	C	0.805700	0.015133	1.045133	0.000000
H296	H	0.520067	0.007400	1.050167	0.000000
C352	C	0.635900	0.160300	1.014700	0.000000
H297	H	0.665033	0.169667	0.992600	0.000000
C353	C	0.660100	0.132267	1.040567	0.000000
C354	C	0.670500	0.039700	1.031667	0.000000
C355	C	0.776167	0.040767	1.071233	0.000000
H298	H	0.804433	0.050567	1.094200	0.000000
C356	C	0.554833	0.131833	1.078200	0.000000
H299	H	0.526433	0.121800	1.100233	0.000000
C357	C	0.527533	0.159900	1.054200	0.000000
H300	H	0.814867	0.169167	1.059700	0.000000
C358	C	0.569300	0.174333	1.021533	0.000000
C359	C	0.792667	0.303567	0.985000	0.000000
C360	C	0.540667	0.204600	0.993833	0.000000
N121	N	0.432564	0.944760	0.191940	0.000000
H301	H	0.415629	0.925332	0.212954	0.000000
H302	H	0.397635	0.951940	0.167622	0.000000
N122	N	0.564422	0.883329	0.201809	0.000000
H303	H	0.580423	0.904080	0.221615	0.000000
H304	H	0.600015	0.874996	0.179380	0.000000
Ni31	Ni	0.498267	0.917987	0.279810	0.000000
O121	O	0.413767	0.783207	0.130967	0.000000
O122	O	0.584967	0.711027	0.123400	0.000000
O123	O	0.645633	0.784077	0.165767	0.000000
O124	O	0.355500	0.706600	0.158067	0.000000
N123	N	0.542633	0.947633	0.232067	0.000000
N124	N	0.453700	0.882033	0.238367	0.000000
C361	C	0.529267	0.986433	0.171133	0.000000
H305	H	0.500067	0.995400	0.148033	0.000000
C362	C	0.597733	0.999333	0.177900	0.000000
C363	C	0.639033	0.984867	0.211800	0.000000
H306	H	0.353400	0.992600	0.216833	0.000000
C364	C	0.469233	0.839700	0.181367	0.000000
H307	H	0.498367	0.830333	0.159267	0.000000
C365	C	0.493433	0.867733	0.207233	0.000000
C366	C	0.503833	0.960300	0.198333	0.000000
C367	C	0.609500	0.959233	0.237900	0.000000
H308	H	0.637767	0.949433	0.260867	0.000000
C368	C	0.388167	0.868167	0.244867	0.000000
H309	H	0.359767	0.878200	0.266900	0.000000
C369	C	0.360867	0.840100	0.220867	0.000000
H310	H	0.648200	0.830833	0.226367	0.000000
C370	C	0.402633	0.825667	0.188200	0.000000
C371	C	0.626000	0.696433	0.151667	0.000000
C372	C	0.374000	0.795400	0.160500	0.000000
N125	N	0.599231	0.388573	0.358607	0.000000
H311	H	0.582295	0.408002	0.379621	0.000000
H312	H	0.564302	0.381393	0.334288	0.000000
N126	N	0.731089	0.450004	0.368476	0.000000
H313	H	0.747090	0.429254	0.388282	0.000000
H314	H	0.766682	0.458338	0.346047	0.000000
Ni32	Ni	0.664933	0.415347	0.446477	0.000000
O125	O	0.580433	0.550127	0.297633	0.000000
O126	O	0.751633	0.622307	0.290067	0.000000
O127	O	0.812300	0.549257	0.332433	0.000000
O128	O	0.522167	0.626733	0.324733	0.000000
N127	N	0.709300	0.385700	0.398733	0.000000
N128	N	0.620367	0.451300	0.405033	0.000000
C373	C	0.695933	0.346900	0.337800	0.000000
H315	H	0.666733	0.337933	0.314700	0.000000
C374	C	0.764400	0.334000	0.344567	0.000000
C375	C	0.805700	0.348467	0.378467	0.000000
H316	H	0.520067	0.340733	0.383500	0.000000
C376	C	0.635900	0.493633	0.348033	0.000000
H317	H	0.665033	0.503000	0.325933	0.000000
C377	C	0.660100	0.465600	0.373900	0.000000
C378	C	0.670500	0.373033	0.365000	0.000000
C379	C	0.776167	0.374100	0.404567	0.000000
H318	H	0.804433	0.383900	0.427533	0.000000
C380	C	0.554833	0.465167	0.411533	0.000000
H319	H	0.526433	0.455133	0.433567	0.000000
C381	C	0.527533	0.493233	0.387533	0.000000
H320	H	0.814867	0.502500	0.393033	0.000000
C382	C	0.569300	0.507667	0.354867	0.000000
C383	C	0.792667	0.636900	0.318333	0.000000
C384	C	0.540667	0.537933	0.327167	0.000000
N129	N	0.432564	0.944760	0.525274	0.000000
H321	H	0.415629	0.925332	0.546288	0.000000
H322	H	0.397635	0.951940	0.500955	0.000000
N130	N	0.564422	0.883329	0.535143	0.000000
H323	H	0.580423	0.904080	0.554948	0.000000
H324	H	0.600015	0.874996	0.512714	0.000000
Ni33	Ni	0.498267	0.917987	0.613143	0.000000
O129	O	0.413767	0.783207	0.464300	0.000000
O130	O	0.584967	0.711027	0.456733	0.000000
O131	O	0.645633	0.784077	0.499100	0.000000
O132	O	0.355500	0.706600	0.491400	0.000000
N131	N	0.542633	0.947633	0.565400	0.000000
N132	N	0.453700	0.882033	0.571700	0.000000
C385	C	0.529267	0.986433	0.504467	0.000000
H325	H	0.500067	0.995400	0.481367	0.000000
C386	C	0.597733	0.999333	0.511233	0.000000
C387	C	0.639033	0.984867	0.545133	0.000000
H326	H	0.353400	0.992600	0.550167	0.000000
C388	C	0.469233	0.839700	0.514700	0.000000
H327	H	0.498367	0.830333	0.492600	0.000000
C389	C	0.493433	0.867733	0.540567	0.000000
C390	C	0.503833	0.960300	0.531667	0.000000
C391	C	0.609500	0.959233	0.571233	0.000000
H328	H	0.637767	0.949433	0.594200	0.000000
C392	C	0.388167	0.868167	0.578200	0.000000
H329	H	0.359767	0.878200	0.600233	0.000000
C393	C	0.360867	0.840100	0.554200	0.000000
H330	H	0.648200	0.830833	0.559700	0.000000
C394	C	0.402633	0.825667	0.521533	0.000000
C395	C	0.626000	0.696433	0.485000	0.000000
C396	C	0.374000	0.795400	0.493833	0.000000
N133	N	0.599231	0.388573	0.691940	0.000000
H331	H	0.582295	0.408002	0.712954	0.000000
H332	H	0.564302	0.381393	0.667622	0.000000
N134	N	0.731089	0.450004	0.701809	0.000000
H333	H	0.747090	0.429254	0.721615	0.000000
H334	H	0.766682	0.458338	0.679380	0.000000
Ni34	Ni	0.664933	0.415347	0.779810	0.000000
O133	O	0.580433	0.550127	0.630967	0.000000
O134	O	0.751633	0.622307	0.623400	0.000000
O135	O	0.812300	0.549257	0.665767	0.000000
O136	O	0.522167	0.626733	0.658067	0.000000
N135	N	0.709300	0.385700	0.732067	0.000000
N136	N	0.620367	0.451300	0.738367	0.000000
C397	C	0.695933	0.346900	0.671133	0.000000
H335	H	0.666733	0.337933	0.648033	0.000000
C398	C	0.764400	0.334000	0.677900	0.000000
C399	C	0.805700	0.348467	0.711800	0.000000
H336	H	0.520067	0.340733	0.716833	0.000000
C400	C	0.635900	0.493633	0.681367	0.000000
H337	H	0.665033	0.503000	0.659267	0.000000
C401	C	0.660100	0.465600	0.707233	0.000000
C402	C	0.670500	0.373033	0.698333	0.000000
C403	C	0.776167	0.374100	0.737900	0.000000
H338	H	0.804433	0.383900	0.760867	0.000000
C404	C	0.554833	0.465167	0.744867	0.000000
H339	H	0.526433	0.455133	0.766900	0.000000
C405	C	0.527533	0.493233	0.720867	0.000000
H340	H	0.814867	0.502500	0.726367	0.000000
C406	C	0.569300	0.507667	0.688200	0.000000
C407	C	0.792667	0.636900	0.651667	0.000000
C408	C	0.540667	0.537933	0.660500	0.000000
N137	N	0.432564	0.944760	0.858607	0.000000
H341	H	0.415629	0.925332	0.879621	0.000000
H342	H	0.397635	0.951940	0.834288	0.000000
N138	N	0.564422	0.883329	0.868476	0.000000
H343	H	0.580423	0.904080	0.888282	0.000000
H344	H	0.600015	0.874996	0.846047	0.000000
Ni35	Ni	0.498267	0.917987	0.946477	0.000000
O137	O	0.413767	0.783207	0.797633	0.000000
O138	O	0.584967	0.711027	0.790067	0.000000
O139	O	0.645633	0.784077	0.832433	0.000000
O140	O	0.355500	0.706600	0.824733	0.000000
N139	N	0.542633	0.947633	0.898733	0.000000
N140	N	0.453700	0.882033	0.905033	0.000000
C409	C	0.529267	0.986433	0.837800	0.000000
H345	H	0.500067	0.995400	0.814700	0.000000
C410	C	0.597733	0.999333	0.844567	0.000000
C411	C	0.639033	0.984867	0.878467	0.000000
H346	H	0.353400	0.992600	0.883500	0.000000
C412	C	0.469233	0.839700	0.848033	0.000000
H347	H	0.498367	0.830333	0.825933	0.000000
C413	C	0.493433	0.867733	0.873900	0.000000
C414	C	0.503833	0.960300	0.865000	0.000000
C415	C	0.609500	0.959233	0.904567	0.000000
H348	H	0.637767	0.949433	0.927533	0.000000
C416	C	0.388167	0.868167	0.911533	0.000000
H349	H	0.359767	0.878200	0.933567	0.000000
C417	C	0.360867	0.840100	0.887533	0.000000
H350	H	0.648200	0.830833	0.893033	0.000000
C418	C	0.402633	0.825667	0.854867	0.000000
C419	C	0.626000	0.696433	0.818333	0.000000
C420	C	0.374000	0.795400	0.827167	0.000000
N141	N	0.599231	0.388573	1.025274	0.000000
H351	H	0.582295	0.408002	1.046288	0.000000
H352	H	0.564302	0.381393	1.000955	0.000000
N142	N	0.731089	0.450004	1.035143	0.000000
H353	H	0.747090	0.429254	1.054948	0.000000
H354	H	0.766682	0.458338	1.012714	0.000000
Ni36	Ni	0.664933	0.415347	1.113143	0.000000
O141	O	0.580433	0.550127	0.964300	0.000000
O142	O	0.751633	0.622307	0.956733	0.000000
O143	O	0.812300	0.549257	0.999100	0.000000
O144	O	0.522167	0.626733	0.991400	0.000000
N143	N	0.709300	0.385700	1.065400	0.000000
N144	N	0.620367	0.451300	1.071700	0.000000
C421	C	0.695933	0.346900	1.004467	0.000000
H355	H	0.666733	0.337933	0.981367	0.000000
C422	C	0.764400	0.334000	1.011233	0.000000
C423	C	0.805700	0.348467	1.045133	0.000000
H356	H	0.520067	0.340733	1.050167	0.000000
C424	C	0.635900	0.493633	1.014700	0.000000
H357	H	0.665033	0.503000	0.992600	0.000000
C425	C	0.660100	0.465600	1.040567	0.000000
C426	C	0.670500	0.373033	1.031667	0.000000
C427	C	0.776167	0.374100	1.071233	0.000000
H358	H	0.804433	0.383900	1.094200	0.000000
C428	C	0.554833	0.465167	1.078200	0.000000
H359	H	0.526433	0.455133	1.100233	0.000000
C429	C	0.527533	0.493233	1.054200	0.000000
H360	H	0.814867	0.502500	1.059700	0.000000
C430	C	0.569300	0.507667	1.021533	0.000000
C431	C	0.792667	0.636900	0.985000	0.000000
C432	C	0.540667	0.537933	0.993833	0.000000
N145	N	0.765898	0.278094	0.191940	0.000000
H361	H	0.748962	0.258665	0.212954	0.000000
H362	H	0.730969	0.285273	0.167622	0.000000
N146	N	0.897755	0.216663	0.201809	0.000000
H363	H	0.913756	0.237413	0.221615	0.000000
H364	H	0.933349	0.208329	0.179380	0.000000
Ni37	Ni	0.831600	0.251320	0.279810	0.000000
O145	O	0.747100	0.116540	0.130967	0.000000
O146	O	0.918300	0.044360	0.123400	0.000000
O147	O	0.978967	0.117410	0.165767	0.000000
O148	O	0.688833	0.039933	0.158067	0.000000
N147	N	0.875967	0.280967	0.232067	0.000000
N148	N	0.787033	0.215367	0.238367	0.000000
C433	C	0.862600	0.319767	0.171133	0.000000
H365	H	0.833400	0.328733	0.148033	0.000000
C434	C	0.931067	0.332667	0.177900	0.000000
C435	C	0.972367	0.318200	0.211800	0.000000
H366	H	0.686733	0.325933	0.216833	0.000000
C436	C	0.802567	0.173033	0.181367	0.000000
H367	H	0.831700	0.163667	0.159267	0.000000
C437	C	0.826767	0.201067	0.207233	0.000000
C438	C	0.837167	0.293633	0.198333	0.000000
C439	C	0.942833	0.292567	0.237900	0.000000
H368	H	0.971100	0.282767	0.260867	0.000000
C440	C	0.721500	0.201500	0.244867	0.000000
H369	H	0.693100	0.211533	0.266900	0.000000
C441	C	0.694200	0.173433	0.220867	0.000000
H370	H	0.981533	0.164167	0.226367	0.000000
C442	C	0.735967	0.159000	0.188200	0.000000
C443	C	0.959333	0.029767	0.151667	0.000000
C444	C	0.707333	0.128733	0.160500	0.000000
N149	N	0.932564	-0.278094	0.358607	0.000000
H371	H	0.915629	-0.258665	0.379621	0.000000
H372	H	0.897635	-0.285273	0.334288	0.000000
N150	N	1.064422	-0.216663	0.368476	0.000000
H373	H	1.080423	-0.237413	0.388282	0.000000
H374	H	1.100015	-0.208329	0.346047	0.000000
Ni38	Ni	0.998267	-0.251320	0.446477	0.000000
O149	O	0.913767	-0.116540	0.297633	0.000000
O150	O	1.084967	-0.044360	0.290067	0.000000
O151	O	1.145633	-0.117410	0.332433	0.000000
O152	O	0.855500	-0.039933	0.324733	0.000000
N151	N	1.042633	-0.280967	0.398733	0.000000
N152	N	0.953700	-0.215367	0.405033	0.000000
C445	C	1.029267	-0.319767	0.337800	0.000000
H375	H	1.000067	-0.328733	0.314700	0.000000
C446	C	1.097733	-0.332667	0.344567	0.000000
C447	C	1.139033	-0.318200	0.378467	0.000000
H376	H	0.853400	-0.325933	0.383500	0.000000
C448	C	0.969233	-0.173033	0.348033	0.000000
H377	H	0.998367	-0.163667	0.325933	0.000000
C449	C	0.993433	-0.201067	0.373900	0.000000
C450	C	1.003833	-0.293633	0.365000	0.000000
C451	C	1.109500	-0.292567	0.404567	0.000000
H378	H	1.137767	-0.282767	0.427533	0.000000
C452	C	0.888167	-0.201500	0.411533	0.000000
H379	H	0.859767	-0.211533	0.433567	0.000000
C453	C	0.860867	-0.173433	0.387533	0.000000
H380	H	1.148200	-0.164167	0.393033	0.000000
C454	C	0.902633	-0.159000	0.354867	0.000000
C455	C	1.126000	-0.029767	0.318333	0.000000
C456	C	0.874000	-0.128733	0.327167	0.000000
N153	N	0.765898	0.278094	0.525274	0.000000
H381	H	0.748962	0.258665	0.546288	0.000000
H382	H	0.730969	0.285273	0.500955	0.000000
N154	N	0.897755	0.216663	0.535143	0.000000
H383	H	0.913756	0.237413	0.554948	0.000000
H384	H	0.933349	0.208329	0.512714	0.000000
Ni39	Ni	0.831600	0.251320	0.613143	0.000000
O153	O	0.747100	0.116540	0.464300	0.000000
O154	O	0.918300	0.044360	0.456733	0.000000
O155	O	0.978967	0.117410	0.499100	0.000000
O156	O	0.688833	0.039933	0.491400	0.000000
N155	N	0.875967	0.280967	0.565400	0.000000
N156	N	0.787033	0.215367	0.571700	0.000000
C457	C	0.862600	0.319767	0.504467	0.000000
H385	H	0.833400	0.328733	0.481367	0.000000
C458	C	0.931067	0.332667	0.511233	0.000000
C459	C	0.972367	0.318200	0.545133	0.000000
H386	H	0.686733	0.325933	0.550167	0.000000
C460	C	0.802567	0.173033	0.514700	0.000000
H387	H	0.831700	0.163667	0.492600	0.000000
C461	C	0.826767	0.201067	0.540567	0.000000
C462	C	0.837167	0.293633	0.531667	0.000000
C463	C	0.942833	0.292567	0.571233	0.000000
H388	H	0.971100	0.282767	0.594200	0.000000
C464	C	0.721500	0.201500	0.578200	0.000000
H389	H	0.693100	0.211533	0.600233	0.000000
C465	C	0.694200	0.173433	0.554200	0.000000
H390	H	0.981533	0.164167	0.559700	0.000000
C466	C	0.735967	0.159000	0.521533	0.000000
C467	C	0.959333	0.029767	0.485000	0.000000
C468	C	0.707333	0.128733	0.493833	0.000000
N157	N	0.932564	-0.278094	0.691940	0.000000
H391	H	0.915629	-0.258665	0.712954	0.000000
H392	H	0.897635	-0.285273	0.667622	0.000000
N158	N	1.064422	-0.216663	0.701809	0.000000
H393	H	1.080423	-0.237413	0.721615	0.000000
H394	H	1.100015	-0.208329	0.679380	0.000000
Ni40	Ni	0.998267	-0.251320	0.779810	0.000000
O157	O	0.913767	-0.116540	0.630967	0.000000
O158	O	1.084967	-0.044360	0.623400	0.000000
O159	O	1.145633	-0.117410	0.665767	0.000000
O160	O	0.855500	-0.039933	0.658067	0.000000
N159	N	1.042633	-0.280967	0.732067	0.000000
N160	N	0.953700	-0.215367	0.738367	0.000000
C469	C	1.029267	-0.319767	0.671133	0.000000
H395	H	1.000067	-0.328733	0.648033	0.000000
C470	C	1.097733	-0.332667	0.677900	0.000000
C471	C	1.139033	-0.318200	0.711800	0.000000
H396	H	0.853400	-0.325933	0.716833	0.000000
C472	C	0.969233	-0.173033	0.681367	0.000000
H397	H	0.998367	-0.163667	0.659267	0.000000
C473	C	0.993433	-0.201067	0.707233	0.000000
C474	C	1.003833	-0.293633	0.698333	0.000000
C475	C	1.109500	-0.292567	0.737900	0.000000
H398	H	1.137767	-0.282767	0.760867	0.000000
C476	C	0.888167	-0.201500	0.744867	0.000000
H399	H	0.859767	-0.211533	0.766900	0.000000
C477	C	0.860867	-0.173433	0.720867	0.000000
H400	H	1.148200	-0.164167	0.726367	0.000000
C478	C	0.902633	-0.159000	0.688200	0.000000
C479	C	1.126000	-0.029767	0.651667	0.000000
C480	C	0.874000	-0.128733	0.660500	0.000000
N161	N	0.765898	0.278094	0.858607	0.000000
H401	H	0.748962	0.258665	0.879621	0.000000
H402	H	0.730969	0.285273	0.834288	0.000000
N162	N	0.897755	0.216663	0.868476	0.000000
H403	H	0.913756	0.237413	0.888282	0.000000
H404	H	0.933349	0.208329	0.846047	0.000000
Ni41	Ni	0.831600	0.251320	0.946477	0.000000
O161	O	0.747100	0.116540	0.797633	0.000000
O162	O	0.918300	0.044360	0.790067	0.000000
O163	O	0.978967	0.117410	0.832433	0.000000
O164	O	0.688833	0.039933	0.824733	0.000000
N163	N	0.875967	0.280967	0.898733	0.000000
N164	N	0.787033	0.215367	0.905033	0.000000
C481	C	0.862600	0.319767	0.837800	0.000000
H405	H	0.833400	0.328733	0.814700	0.000000
C482	C	0.931067	0.332667	0.844567	0.000000
C483	C	0.972367	0.318200	0.878467	0.000000
H406	H	0.686733	0.325933	0.883500	0.000000
C484	C	0.802567	0.173033	0.848033	0.000000
H407	H	0.831700	0.163667	0.825933	0.000000
C485	C	0.826767	0.201067	0.873900	0.000000
C486	C	0.837167	0.293633	0.865000	0.000000
C487	C	0.942833	0.292567	0.904567	0.000000
H408	H	0.971100	0.282767	0.927533	0.000000
C488	C	0.721500	0.201500	0.911533	0.000000
H409	H	0.693100	0.211533	0.933567	0.000000
C489	C	0.694200	0.173433	0.887533	0.000000
H410	H	0.981533	0.164167	0.893033	0.000000
C490	C	0.735967	0.159000	0.854867	0.000000
C491	C	0.959333	0.029767	0.818333	0.000000
C492	C	0.707333	0.128733	0.827167	0.000000
N165	N	0.932564	-0.278094	1.025274	0.000000
H411	H	0.915629	-0.258665	1.046288	0.000000
H412	H	0.897635	-0.285273	1.000955	0.000000
N166	N	1.064422	-0.216663	1.035143	0.000000
H413	H	1.080423	-0.237413	1.054948	0.000000
H414	H	1.100015	-0.208329	1.012714	0.000000
Ni42	Ni	0.998267	-0.251320	1.113143	0.000000
O165	O	0.913767	-0.116540	0.964300	0.000000
O166	O	1.084967	-0.044360	0.956733	0.000000
O167	O	1.145633	-0.117410	0.999100	0.000000
O168	O	0.855500	-0.039933	0.991400	0.000000
N167	N	1.042633	-0.280967	1.065400	0.000000
N168	N	0.953700	-0.215367	1.071700	0.000000
C493	C	1.029267	-0.319767	1.004467	0.000000
H415	H	1.000067	-0.328733	0.981367	0.000000
C494	C	1.097733	-0.332667	1.011233	0.000000
C495	C	1.139033	-0.318200	1.045133	0.000000
H416	H	0.853400	-0.325933	1.050167	0.000000
C496	C	0.969233	-0.173033	1.014700	0.000000
H417	H	0.998367	-0.163667	0.992600	0.000000
C497	C	0.993433	-0.201067	1.040567	0.000000
C498	C	1.003833	-0.293633	1.031667	0.000000
C499	C	1.109500	-0.292567	1.071233	0.000000
H418	H	1.137767	-0.282767	1.094200	0.000000
C500	C	0.888167	-0.201500	1.078200	0.000000
H419	H	0.859767	-0.211533	1.100233	0.000000
C501	C	0.860867	-0.173433	1.054200	0.000000
H420	H	1.148200	-0.164167	1.059700	0.000000
C502	C	0.902633	-0.159000	1.021533	0.000000
C503	C	1.126000	-0.029767	0.985000	0.000000
C504	C	0.874000	-0.128733	0.993833	0.000000
N169	N	0.765898	0.611427	0.191940	0.000000
H421	H	0.748962	0.591998	0.212954	0.000000
H422	H	0.730969	0.618607	0.167622	0.000000
N170	N	0.897755	0.549996	0.201809	0.000000
H423	H	0.913756	0.570746	0.221615	0.000000
H424	H	0.933349	0.541662	0.179380	0.000000
Ni43	Ni	0.831600	0.584653	0.279810	0.000000
O169	O	0.747100	0.449873	0.130967	0.000000
O170	O	0.918300	0.377693	0.123400	0.000000
O171	O	0.978967	0.450743	0.165767	0.000000
O172	O	0.688833	0.373267	0.158067	0.000000
N171	N	0.875967	0.614300	0.232067	0.000000
N172	N	0.787033	0.548700	0.238367	0.000000
C505	C	0.862600	0.653100	0.171133	0.000000
H425	H	0.833400	0.662067	0.148033	0.000000
C506	C	0.931067	0.666000	0.177900	0.000000
C507	C	0.972367	0.651533	0.211800	0.000000
H426	H	0.686733	0.659267	0.216833	0.000000
C508	C	0.802567	0.506367	0.181367	0.000000
H427	H	0.831700	0.497000	0.159267	0.000000
C509	C	0.826767	0.534400	0.207233	0.000000
C510	C	0.837167	0.626967	0.198333	0.000000
C511	C	0.942833	0.625900	0.237900	0.000000
H428	H	0.971100	0.616100	0.260867	0.000000
C512	C	0.721500	0.534833	0.244867	0.000000
H429	H	0.693100	0.544867	0.266900	0.000000
C513	C	0.694200	0.506767	0.220867	0.000000
H430	H	0.981533	0.497500	0.226367	0.000000
C514	C	0.735967	0.492333	0.188200	0.000000
C515	C	0.959333	0.363100	0.151667	0.000000
C516	C	0.707333	0.462067	0.160500	0.000000
N173	N	0.932564	0.055240	0.358607	0.000000
H431	H	0.915629	0.074668	0.379621	0.000000
H432	H	0.897635	0.048060	0.334288	0.000000
N174	N	1.064422	0.116671	0.368476	0.000000
H433	H	1.080423	0.095920	0.388282	0.000000
H434	H	1.100015	0.125004	0.346047	0.000000
Ni44	Ni	0.998267	0.082013	0.446477	0.000000
O173	O	0.913767	0.216793	0.297633	0.000000
O174	O	1.084967	0.288973	0.290067	0.000000
O175	O	1.145633	0.215923	0.332433	0.000000
O176	O	0.855500	0.293400	0.324733	0.000000
N175	N	1.042633	0.052367	0.398733	0.000000
N176	N	0.953700	0.117967	0.405033	0.000000
C517	C	1.029267	0.013567	0.337800	0.000000
H435	H	1.000067	0.004600	0.314700	0.000000
C518	C	1.097733	0.000667	0.344567	0.000000
C519	C	1.139033	0.015133	0.378467	0.000000
H436	H	0.853400	0.007400	0.383500	0.000000
C520	C	0.969233	0.160300	0.348033	0.000000
H437	H	0.998367	0.169667	0.325933	0.000000
C521	C	0.993433	0.132267	0.373900	0.000000
C522	C	1.003833	0.039700	0.365000	0.000000
C523	C	1.109500	0.040767	0.404567	0.000000
H438	H	1.137767	0.050567	0.427533	0.000000
C524	C	0.888167	0.131833	0.411533	0.000000
H439	H	0.859767	0.121800	0.433567	0.000000
C525	C	0.860867	0.159900	0.387533	0.000000
H440	H	1.148200	0.169167	0.393033	0.000000
C526	C	0.902633	0.174333	0.354867	0.000000
C527	C	1.126000	0.303567	0.318333	0.000000
C528	C	0.874000	0.204600	0.327167	0.000000
N177	N	0.765898	0.611427	0.525274	0.000000
H441	H	0.748962	0.591998	0.546288	0.000000
H442	H	0.730969	0.618607	0.500955	0.000000
N178	N	0.897755	0.549996	0.535143	0.000000
H443	H	0.913756	0.570746	0.554948	0.000000
H444	H	0.933349	0.541662	0.512714	0.000000
Ni45	Ni	0.831600	0.584653	0.613143	0.000000
O177	O	0.747100	0.449873	0.464300	0.000000
O178	O	0.918300	0.377693	0.456733	0.000000
O179	O	0.978967	0.450743	0.499100	0.000000
O180	O	0.688833	0.373267	0.491400	0.000000
N179	N	0.875967	0.614300	0.565400	0.000000
N180	N	0.787033	0.548700	0.571700	0.000000
C529	C	0.862600	0.653100	0.504467	0.000000
H445	H	0.833400	0.662067	0.481367	0.000000
C530	C	0.931067	0.666000	0.511233	0.000000
C531	C	0.972367	0.651533	0.545133	0.000000
H446	H	0.686733	0.659267	0.550167	0.000000
C532	C	0.802567	0.506367	0.514700	0.000000
H447	H	0.831700	0.497000	0.492600	0.000000
C533	C	0.826767	0.534400	0.540567	0.000000
C534	C	0.837167	0.626967	0.531667	0.000000
C535	C	0.942833	0.625900	0.571233	0.000000
H448	H	0.971100	0.616100	0.594200	0.000000
C536	C	0.721500	0.534833	0.578200	0.000000
H449	H	0.693100	0.544867	0.600233	0.000000
C537	C	0.694200	0.506767	0.554200	0.000000
H450	H	0.981533	0.497500	0.559700	0.000000
C538	C	0.735967	0.492333	0.521533	0.000000
C539	C	0.959333	0.363100	0.485000	0.000000
C540	C	0.707333	0.462067	0.493833	0.000000
N181	N	0.932564	0.055240	0.691940	0.000000
H451	H	0.915629	0.074668	0.712954	0.000000
H452	H	0.897635	0.048060	0.667622	0.000000
N182	N	1.064422	0.116671	0.701809	0.000000
H453	H	1.080423	0.095920	0.721615	0.000000
H454	H	1.100015	0.125004	0.679380	0.000000
Ni46	Ni	0.998267	0.082013	0.779810	0.000000
O181	O	0.913767	0.216793	0.630967	0.000000
O182	O	1.084967	0.288973	0.623400	0.000000
O183	O	1.145633	0.215923	0.665767	0.000000
O184	O	0.855500	0.293400	0.658067	0.000000
N183	N	1.042633	0.052367	0.732067	0.000000
N184	N	0.953700	0.117967	0.738367	0.000000
C541	C	1.029267	0.013567	0.671133	0.000000
H455	H	1.000067	0.004600	0.648033	0.000000
C542	C	1.097733	0.000667	0.677900	0.000000
C543	C	1.139033	0.015133	0.711800	0.000000
H456	H	0.853400	0.007400	0.716833	0.000000
C544	C	0.969233	0.160300	0.681367	0.000000
H457	H	0.998367	0.169667	0.659267	0.000000
C545	C	0.993433	0.132267	0.707233	0.000000
C546	C	1.003833	0.039700	0.698333	0.000000
C547	C	1.109500	0.040767	0.737900	0.000000
H458	H	1.137767	0.050567	0.760867	0.000000
C548	C	0.888167	0.131833	0.744867	0.000000
H459	H	0.859767	0.121800	0.766900	0.000000
C549	C	0.860867	0.159900	0.720867	0.000000
H460	H	1.148200	0.169167	0.726367	0.000000
C550	C	0.902633	0.174333	0.688200	0.000000
C551	C	1.126000	0.303567	0.651667	0.000000
C552	C	0.874000	0.204600	0.660500	0.000000
N185	N	0.765898	0.611427	0.858607	0.000000
H461	H	0.748962	0.591998	0.879621	0.000000
H462	H	0.730969	0.618607	0.834288	0.000000
N186	N	0.897755	0.549996	0.868476	0.000000
H463	H	0.913756	0.570746	0.888282	0.000000
H464	H	0.933349	0.541662	0.846047	0.000000
Ni47	Ni	0.831600	0.584653	0.946477	0.000000
O185	O	0.747100	0.449873	0.797633	0.000000
O186	O	0.918300	0.377693	0.790067	0.000000
O187	O	0.978967	0.450743	0.832433	0.000000
O188	O	0.688833	0.373267	0.824733	0.000000
N187	N	0.875967	0.614300	0.898733	0.000000
N188	N	0.787033	0.548700	0.905033	0.000000
C553	C	0.862600	0.653100	0.837800	0.000000
H465	H	0.833400	0.662067	0.814700	0.000000
C554	C	0.931067	0.666000	0.844567	0.000000
C555	C	0.972367	0.651533	0.878467	0.000000
H466	H	0.686733	0.659267	0.883500	0.000000
C556	C	0.802567	0.506367	0.848033	0.000000
H467	H	0.831700	0.497000	0.825933	0.000000
C557	C	0.826767	0.534400	0.873900	0.000000
C558	C	0.837167	0.626967	0.865000	0.000000
C559	C	0.942833	0.625900	0.904567	0.000000
H468	H	0.971100	0.616100	0.927533	0.000000
C560	C	0.721500	0.534833	0.911533	0.000000
H469	H	0.693100	0.544867	0.933567	0.000000
C561	C	0.694200	0.506767	0.887533	0.000000
H470	H	0.981533	0.497500	0.893033	0.000000
C562	C	0.735967	0.492333	0.854867	0.000000
C563	C	0.959333	0.363100	0.818333	0.000000
C564	C	0.707333	0.462067	0.827167	0.000000
N189	N	0.932564	0.055240	1.025274	0.000000
H471	H	0.915629	0.074668	1.046288	0.000000
H472	H	0.897635	0.048060	1.000955	0.000000
N190	N	1.064422	0.116671	1.035143	0.000000
H473	H	1.080423	0.095920	1.054948	0.000000
H474	H	1.100015	0.125004	1.012714	0.000000
Ni48	Ni	0.998267	0.082013	1.113143	0.000000
O189	O	0.913767	0.216793	0.964300	0.000000
O190	O	1.084967	0.288973	0.956733	0.000000
O191	O	1.145633	0.215923	0.999100	0.000000
O192	O	0.855500	0.293400	0.991400	0.000000
N191	N	1.042633	0.052367	1.065400	0.000000
N192	N	0.953700	0.117967	1.071700	0.000000
C565	C	1.029267	0.013567	1.004467	0.000000
H475	H	1.000067	0.004600	0.981367	0.000000
C566	C	1.097733	0.000667	1.011233	0.000000
C567	C	1.139033	0.015133	1.045133	0.000000
H476	H	0.853400	0.007400	1.050167	0.000000
C568	C	0.969233	0.160300	1.014700	0.000000
H477	H	0.998367	0.169667	0.992600	0.000000
C569	C	0.993433	0.132267	1.040567	0.000000
C570	C	1.003833	0.039700	1.031667	0.000000
C571	C	1.109500	0.040767	1.071233	0.000000
H478	H	1.137767	0.050567	1.094200	0.000000
C572	C	0.888167	0.131833	1.078200	0.000000
H479	H	0.859767	0.121800	1.100233	0.000000
C573	C	0.860867	0.159900	1.054200	0.000000
H480	H	1.148200	0.169167	1.059700	0.000000
C574	C	0.902633	0.174333	1.021533	0.000000
C575	C	1.126000	0.303567	0.985000	0.000000
C576	C	0.874000	0.204600	0.993833	0.000000
N193	N	0.765898	0.944760	0.191940	0.000000
H481	H	0.748962	0.925332	0.212954	0.000000
H482	H	0.730969	0.951940	0.167622	0.000000
N194	N	0.897755	0.883329	0.201809	0.000000
H483	H	0.913756	0.904080	0.221615	0.000000
H484	H	0.933349	0.874996	0.179380	0.000000
Ni49	Ni	0.831600	0.917987	0.279810	0.000000
O193	O	0.747100	0.783207	0.130967	0.000000
O194	O	0.918300	0.711027	0.123400	0.000000
O195	O	0.978967	0.784077	0.165767	0.000000
O196	O	0.688833	0.706600	0.158067	0.000000
N195	N	0.875967	0.947633	0.232067	0.000000
N196	N	0.787033	0.882033	0.238367	0.000000
C577	C	0.862600	0.986433	0.171133	0.000000
H485	H	0.833400	0.995400	0.148033	0.000000
C578	C	0.931067	0.999333	0.177900	0.000000
C579	C	0.972367	0.984867	0.211800	0.000000
H486	H	0.686733	0.992600	0.216833	0.000000
C580	C	0.802567	0.839700	0.181367	0.000000
H487	H	0.831700	0.830333	0.159267	0.000000
C581	C	0.826767	0.867733	0.207233	0.000000
C582	C	0.837167	0.960300	0.198333	0.000000
C583	C	0.942833	0.959233	0.237900	0.000000
H488	H	0.971100	0.949433	0.260867	0.000000
C584	C	0.721500	0.868167	0.244867	0.000000
H489	H	0.693100	0.878200	0.266900	0.000000
C585	C	0.694200	0.840100	0.220867	0.000000
H490	H	0.981533	0.830833	0.226367	0.000000
C586	C	0.735967	0.825667	0.188200	0.000000
C587	C	0.959333	0.696433	0.151667	0.000000
C588	C	0.707333	0.795400	0.160500	0.000000
N197	N	0.932564	0.388573	0.358607	0.000000
H491	H	0.915629	0.408002	0.379621	0.000000
H492	H	0.897635	0.381393	0.334288	0.000000
N198	N	1.064422	0.450004	0.368476	0.000000
H493	H	1.080423	0.429254	0.388282	0.000000
H494	H	1.100015	0.458338	0.346047	0.000000
Ni50	Ni	0.998267	0.415347	0.446477	0.000000
O197	O	0.913767	0.550127	0.297633	0.000000
O198	O	1.084967	0.622307	0.290067	0.000000
O199	O	1.145633	0.549257	0.332433	0.000000
O200	O	0.855500	0.626733	0.324733	0.000000
N199	N	1.042633	0.385700	0.398733	0.000000
N200	N	0.953700	0.451300	0.405033	0.000000
C589	C	1.029267	0.346900	0.337800	0.000000
H495	H	1.000067	0.337933	0.314700	0.000000
C590	C	1.097733	0.334000	0.344567	0.000000
C591	C	1.139033	0.348467	0.378467	0.000000
H496	H	0.853400	0.340733	0.383500	0.000000
C592	C	0.969233	0.493633	0.348033	0.000000
H497	H	0.998367	0.503000	0.325933	0.000000
C593	C	0.993433	0.465600	0.373900	0.000000
C594	C	1.003833	0.373033	0.365000	0.000000
C595	C	1.109500	0.374100	0.404567	0.000000
H498	H	1.137767	0.383900	0.427533	0.000000
C596	C	0.888167	0.465167	0.411533	0.000000
H499	H	0.859767	0.455133	0.433567	0.000000
C597	C	0.860867	0.493233	0.387533	0.000000
H500	H	1.148200	0.502500	0.393033	0.000000
C598	C	0.902633	0.507667	0.354867	0.000000
C599	C	1.126000	0.636900	0.318333	0.000000
C600	C	0.874000	0.537933	0.327167	0.000000
N201	N	0.765898	0.944760	0.525274	0.000000
H501	H	0.748962	0.925332	0.546288	0.000000
H502	H	0.730969	0.951940	0.500955	0.000000
N202	N	0.897755	0.883329	0.535143	0.000000
H503	H	0.913756	0.904080	0.554948	0.000000
H504	H	0.933349	0.874996	0.512714	0.000000
Ni51	Ni	0.831600	0.917987	0.613143	0.000000
O201	O	0.747100	0.783207	0.464300	0.000000
O202	O	0.918300	0.711027	0.456733	0.000000
O203	O	0.978967	0.784077	0.499100	0.000000
O204	O	0.688833	0.706600	0.491400	0.000000
N203	N	0.875967	0.947633	0.565400	0.000000
N204	N	0.787033	0.882033	0.571700	0.000000
C601	C	0.862600	0.986433	0.504467	0.000000
H505	H	0.833400	0.995400	0.481367	0.000000
C602	C	0.931067	0.999333	0.511233	0.000000
C603	C	0.972367	0.984867	0.545133	0.000000
H506	H	0.686733	0.992600	0.550167	0.000000
C604	C	0.802567	0.839700	0.514700	0.000000
H507	H	0.831700	0.830333	0.492600	0.000000
C605	C	0.826767	0.867733	0.540567	0.000000
C606	C	0.837167	0.960300	0.531667	0.000000
C607	C	0.942833	0.959233	0.571233	0.000000
H508	H	0.971100	0.949433	0.594200	0.000000
C608	C	0.721500	0.868167	0.578200	0.000000
H509	H	0.693100	0.878200	0.600233	0.000000
C609	C	0.694200	0.840100	0.554200	0.000000
H510	H	0.981533	0.830833	0.559700	0.000000
C610	C	0.735967	0.825667	0.521533	0.000000
C611	C	0.959333	0.696433	0.485000	0.000000
C612	C	0.707333	0.795400	0.493833	0.000000
N205	N	0.932564	0.388573	0.691940	0.000000
H511	H	0.915629	0.408002	0.712954	0.000000
H512	H	0.897635	0.381393	0.667622	0.000000
N206	N	1.064422	0.450004	0.701809	0.000000
H513	H	1.080423	0.429254	0.721615	0.000000
H514	H	1.100015	0.458338	0.679380	0.000000
Ni52	Ni	0.998267	0.415347	0.779810	0.000000
O205	O	0.913767	0.550127	0.630967	0.000000
O206	O	1.084967	0.622307	0.623400	0.000000
O207	O	1.145633	0.549257	0.665767	0.000000
O208	O	0.855500	0.626733	0.658067	0.000000
N207	N	1.042633	0.385700	0.732067	0.000000
N208	N	0.953700	0.451300	0.738367	0.000000
C613	C	1.029267	0.346900	0.671133	0.000000
H515	H	1.000067	0.337933	0.648033	0.000000
C614	C	1.097733	0.334000	0.677900	0.000000
C615	C	1.139033	0.348467	0.711800	0.000000
H516	H	0.853400	0.340733	0.716833	0.000000
C616	C	0.969233	0.493633	0.681367	0.000000
H517	H	0.998367	0.503000	0.659267	0.000000
C617	C	0.993433	0.465600	0.707233	0.000000
C618	C	1.003833	0.373033	0.698333	0.000000
C619	C	1.109500	0.374100	0.737900	0.000000
H518	H	1.137767	0.383900	0.760867	0.000000
C620	C	0.888167	0.465167	0.744867	0.000000
H519	H	0.859767	0.455133	0.766900	0.000000
C621	C	0.860867	0.493233	0.720867	0.000000
H520	H	1.148200	0.502500	0.726367	0.000000
C622	C	0.902633	0.507667	0.688200	0.000000
C623	C	1.126000	0.636900	0.651667	0.000000
C624	C	0.874000	0.537933	0.660500	0.000000
N209	N	0.765898	0.944760	0.858607	0.000000
H521	H	0.748962	0.925332	0.879621	0.000000
H522	H	0.730969	0.951940	0.834288	0.000000
N210	N	0.897755	0.883329	0.868476	0.000000
H523	H	0.913756	0.904080	0.888282	0.000000
H524	H	0.933349	0.874996	0.846047	0.000000
Ni53	Ni	0.831600	0.917987	0.946477	0.000000
O209	O	0.747100	0.783207	0.797633	0.000000
O210	O	0.918300	0.711027	0.790067	0.000000
O211	O	0.978967	0.784077	0.832433	0.000000
O212	O	0.688833	0.706600	0.824733	0.000000
N211	N	0.875967	0.947633	0.898733	0.000000
N212	N	0.787033	0.882033	0.905033	0.000000
C625	C	0.862600	0.986433	0.837800	0.000000
H525	H	0.833400	0.995400	0.814700	0.000000
C626	C	0.931067	0.999333	0.844567	0.000000
C627	C	0.972367	0.984867	0.878467	0.000000
H526	H	0.686733	0.992600	0.883500	0.000000
C628	C	0.802567	0.839700	0.848033	0.000000
H527	H	0.831700	0.830333	0.825933	0.000000
C629	C	0.826767	0.867733	0.873900	0.000000
C630	C	0.837167	0.960300	0.865000	0.000000
C631	C	0.942833	0.959233	0.904567	0.000000
H528	H	0.971100	0.949433	0.927533	0.000000
C632	C	0.721500	0.868167	0.911533	0.000000
H529	H	0.693100	0.878200	0.933567	0.000000
C633	C	0.694200	0.840100	0.887533	0.000000
H530	H	0.981533	0.830833	0.893033	0.000000
C634	C	0.735967	0.825667	0.854867	0.000000
C635	C	0.959333	0.696433	0.818333	0.000000
C636	C	0.707333	0.795400	0.827167	0.000000
N213	N	0.932564	0.388573	1.025274	0.000000
H531	H	0.915629	0.408002	1.046288	0.000000
H532	H	0.897635	0.381393	1.000955	0.000000
N214	N	1.064422	0.450004	1.035143	0.000000
H533	H	1.080423	0.429254	1.054948	0.000000
H534	H	1.100015	0.458338	1.012714	0.000000
Ni54	Ni	0.998267	0.415347	1.113143	0.000000
O213	O	0.913767	0.550127	0.964300	0.000000
O214	O	1.084967	0.622307	0.956733	0.000000
O215	O	1.145633	0.549257	0.999100	0.000000
O216	O	0.855500	0.626733	0.991400	0.000000
N215	N	1.042633	0.385700	1.065400	0.000000
N216	N	0.953700	0.451300	1.071700	0.000000
C637	C	1.029267	0.346900	1.004467	0.000000
H535	H	1.000067	0.337933	0.981367	0.000000
C638	C	1.097733	0.334000	1.011233	0.000000
C639	C	1.139033	0.348467	1.045133	0.000000
H536	H	0.853400	0.340733	1.050167	0.000000
C640	C	0.969233	0.493633	1.014700	0.000000
H537	H	0.998367	0.503000	0.992600	0.000000
C641	C	0.993433	0.465600	1.040567	0.000000
C642	C	1.003833	0.373033	1.031667	0.000000
C643	C	1.109500	0.374100	1.071233	0.000000
H538	H	1.137767	0.383900	1.094200	0.000000
C644	C	0.888167	0.465167	1.078200	0.000000
H539	H	0.859767	0.455133	1.100233	0.000000
C645	C	0.860867	0.493233	1.054200	0.000000
H540	H	1.148200	0.502500	1.059700	0.000000
C646	C	0.902633	0.507667	1.021533	0.000000
C647	C	1.126000	0.636900	0.985000	0.000000
C648	C	0.874000	0.537933	0.993833	0.000000
