data_removed_atoms_NiPyC2_removed_atoms_NiPyC2_removed_atoms_NiPyC2_PM
_symmetry_space_group_name_H-M	'Pn'
_cell_length_a	6.252800
_cell_length_b	12.523400
_cell_length_c	10.276800
_cell_angle_alpha	90.000000
_cell_angle_beta	91.269000
_cell_angle_gamma	90.000000
_symmetry_Int_Tables_number 1

loop_
_symmetry_equiv_pos_as_xyz
'x,y,z'
'x+1/2,-y,z+1/2'

loop_
_atom_site_label
_atom_site_type_symbol
_atom_site_fract_x
_atom_site_fract_y
_atom_site_fract_z
_atom_site_charge
N1	N	0.297693	0.834281	0.575821	0.000000
H1	H	0.246886	0.775995	0.638863	0.000000
H2	H	0.192906	0.855820	0.502865	0.000000
N2	N	0.693266	0.649988	0.605428	0.000000
H3	H	0.741269	0.712239	0.664845	0.000000
H4	H	0.800046	0.624987	0.538141	0.000000
Ni1	Ni	0.494800	0.753960	0.839430	0.000000
O1	O	0.241300	0.349620	0.392900	0.000000
O2	O	0.754900	0.133080	0.370200	0.000000
O3	O	0.936900	0.352230	0.497300	0.000000
O4	O	0.066500	0.119800	0.474200	0.000000
N3	N	0.627900	0.842900	0.696200	0.000000
N4	N	0.361100	0.646100	0.715100	0.000000
C1	C	0.587800	0.959300	0.513400	0.000000
H5	H	0.500200	0.986200	0.444100	0.000000
C2	C	0.793200	0.998000	0.533700	0.000000
C3	C	0.917100	0.954600	0.635400	0.000000
H6	H	0.060200	0.977800	0.650500	0.000000
C4	C	0.407700	0.519100	0.544100	0.000000
H7	H	0.495100	0.491000	0.477800	0.000000
C5	C	0.480300	0.603200	0.621700	0.000000
C6	C	0.511500	0.880900	0.595000	0.000000
C7	C	0.828500	0.877700	0.713700	0.000000
H8	H	0.913300	0.848300	0.782600	0.000000
C8	C	0.164500	0.604500	0.734600	0.000000
H9	H	0.079300	0.634600	0.800700	0.000000
C9	C	0.082600	0.520300	0.662600	0.000000
H10	H	0.944600	0.492500	0.679100	0.000000
C10	C	0.207900	0.477000	0.564600	0.000000
C11	C	0.878000	0.089300	0.455000	0.000000
C12	C	0.122000	0.386200	0.481500	0.000000

loop_
_geom_bond_atom_site_label_1
_geom_bond_atom_site_label_2
_geom_bond_distance
Ni1	N3	0.21480
Ni1	N4	0.21206
O1	C12	0.15304
O2	C11	0.15576
O3	C12	0.18885
O4	C11	0.19191
N3	C6	0.15885
N3	C7	0.20435
N4	C5	0.15739
N4	C8	0.20190
C1	H5	0.11489
C1	C2	0.21000
C1	C6	0.13648
C2	C3	0.16607
C2	C11	0.14738
C3	H6	0.14575
C3	C7	0.14105
C4	H7	0.11324
C4	C5	0.13552
C4	C10	0.20521
C7	H8	0.11315
C8	H9	0.11196
C8	C9	0.13777
C9	H10	0.14174
C9	C10	0.16486
C10	C12	0.15010
