data_removed_atoms_SBMOF-1_removed_atoms_SBMOF-1_removed_atoms_SBMOF-1_PM
_symmetry_space_group_name_H-M	'P 21/n'
_cell_length_a	11.878300
_cell_length_b	5.548500
_cell_length_c	22.798200
_cell_angle_alpha	90.000000
_cell_angle_beta	101.535000
_cell_angle_gamma	90.000000
_symmetry_Int_Tables_number 1

loop_
_symmetry_equiv_pos_as_xyz
'x,y,z'
'-x+1/2,y+1/2,-z+1/2'
'-x,-y,-z'
'x-1/2,-y-1/2,z-1/2'

loop_
_atom_site_label
_atom_site_type_symbol
_atom_site_fract_x
_atom_site_fract_y
_atom_site_fract_z
_atom_site_charge
F1	F	0.342277	-0.099965	0.475981	0.000000
F2	F	0.685930	-0.073684	0.228310	0.000000
C1	C	0.157200	0.228500	0.465490	0.000000
C2	C	0.265410	0.288500	0.443830	0.000000
C3	C	0.354100	0.122600	0.451650	0.000000
C4	C	0.278500	0.508100	0.416880	0.000000
H1	H	0.218600	0.618900	0.410600	0.000000
C5	C	0.457200	0.176900	0.435110	0.000000
H2	H	0.516900	0.065600	0.440900	0.000000
C6	C	0.380600	0.563000	0.399290	0.000000
H3	H	0.389100	0.708800	0.380500	0.000000
C7	C	0.469750	0.398500	0.409940	0.000000
C8	C	0.598220	0.405100	0.317700	0.000000
C9	C	0.643800	0.189600	0.302850	0.000000
H4	H	0.674700	0.078900	0.332300	0.000000
C10	C	0.550900	0.571000	0.274570	0.000000
H5	H	0.518700	0.713100	0.285300	0.000000
C11	C	0.642400	0.142100	0.242850	0.000000
C12	C	0.552100	0.522200	0.214900	0.000000
H6	H	0.521800	0.633600	0.185500	0.000000
C13	C	0.598150	0.308700	0.199040	0.000000
C14	C	0.605980	0.261600	0.134400	0.000000
O1	O	0.135740	0.011600	0.472620	0.000000
O2	O	0.688500	0.322500	0.429940	0.000000
O3	O	0.616670	0.734700	0.399840	0.000000
O4	O	0.604860	0.441600	0.102110	0.000000
O5	O	0.615050	0.047700	0.119500	0.000000
S1	S	0.604350	0.478380	0.393600	0.000000
Ca1	Ca	0.896530	0.270840	0.456830	0.000000
O6	O	0.093230	0.401000	0.474210	0.000000

loop_
_geom_bond_atom_site_label_1
_geom_bond_atom_site_label_2
_geom_bond_distance
C1	C2	0.12561
C1	O1	0.21808
C1	O6	0.18419
C2	C3	0.18828
C2	C4	0.22163
C3	C5	0.11769
C4	H1	0.12611
C4	C6	0.11725
C5	H2	0.12643
C5	C7	0.22338
C6	H3	0.14725
C6	C7	0.18741
C7	S1	0.15737
C8	C9	0.22077
C8	C10	0.17783
C8	S1	0.10568
C9	H4	0.11864
C9	C11	0.07654
C10	H5	0.14610
C10	C12	0.07709
C11	C13	0.17786
C12	H6	0.11913
C12	C13	0.21898
C13	C14	0.08036
C14	O4	0.18288
C14	O5	0.21461
O2	S1	0.18083
O2	Ca1	0.21603
O3	S1	0.25669
Ca1	O6	0.23650
