data_removed_atoms_SBMOF-1_removed_atoms_SBMOF-1_removed_atoms_SBMOF-1_PM
_symmetry_space_group_name_H-M	'P1'
_cell_length_a	35.634900
_cell_length_b	16.645500
_cell_length_c	68.394600
_cell_angle_alpha	90.000000
_cell_angle_beta	101.535000
_cell_angle_gamma	90.000000
_symmetry_Int_Tables_number 1

loop_
_symmetry_equiv_pos_as_xyz
'x,y,z'

loop_
_atom_site_label
_atom_site_type_symbol
_atom_site_fract_x
_atom_site_fract_y
_atom_site_fract_z
_atom_site_charge
N1	N	0.115468	-0.038438	0.159045	0.000000
H1	H	0.138445	-0.077185	0.160632	0.000000
H2	H	0.091729	-0.059068	0.163697	0.000000
N2	N	0.229843	-0.029615	0.076692	0.000000
H3	H	0.240431	-0.068565	0.088191	0.000000
H4	H	0.231162	-0.048412	0.062635	0.000000
C1	C	0.052400	0.076167	0.155163	0.000000
C2	C	0.088470	0.096167	0.147943	0.000000
C3	C	0.118033	0.040867	0.150550	0.000000
C4	C	0.092833	0.169367	0.138960	0.000000
H5	H	0.072867	0.206300	0.136867	0.000000
C5	C	0.152400	0.058967	0.145037	0.000000
H6	H	0.172300	0.021867	0.146967	0.000000
C6	C	0.126867	0.187667	0.133097	0.000000
H7	H	0.129700	0.236267	0.126833	0.000000
C7	C	0.156583	0.132833	0.136647	0.000000
C8	C	0.199407	0.135033	0.105900	0.000000
C9	C	0.214600	0.063200	0.100950	0.000000
H8	H	0.224900	0.026300	0.110767	0.000000
C10	C	0.183633	0.190333	0.091523	0.000000
H9	H	0.172900	0.237700	0.095100	0.000000
C11	C	0.214133	0.047367	0.080950	0.000000
C12	C	0.184033	0.174067	0.071633	0.000000
H10	H	0.173933	0.211200	0.061833	0.000000
C13	C	0.199383	0.102900	0.066347	0.000000
C14	C	0.201993	0.087200	0.044800	0.000000
O1	O	0.045247	0.003867	0.157540	0.000000
O2	O	0.229500	0.107500	0.143313	0.000000
O3	O	0.205557	0.244900	0.133280	0.000000
O4	O	0.201620	0.147200	0.034037	0.000000
O5	O	0.205017	0.015900	0.039833	0.000000
S1	S	0.201450	0.159460	0.131200	0.000000
Ca1	Ca	0.298843	0.090280	0.152277	0.000000
O6	O	0.031077	0.133667	0.158070	0.000000
N3	N	0.051198	0.128229	0.007621	0.000000
H11	H	0.028222	0.089481	0.006034	0.000000
H12	H	0.074938	0.107599	0.002970	0.000000
N4	N	-0.063176	0.137052	0.089975	0.000000
H13	H	-0.073764	0.098101	0.078476	0.000000
H14	H	-0.064496	0.118255	0.104031	0.000000
C15	C	0.114267	0.242833	0.011503	0.000000
C16	C	0.078197	0.262833	0.018723	0.000000
C17	C	0.048633	0.207533	0.016117	0.000000
C18	C	0.073833	0.336033	0.027707	0.000000
H15	H	0.093800	0.372967	0.029800	0.000000
C19	C	0.014267	0.225633	0.021630	0.000000
H16	H	-0.005633	0.188533	0.019700	0.000000
C20	C	0.039800	0.354333	0.033570	0.000000
H17	H	0.036967	0.402933	0.039833	0.000000
C21	C	0.010083	0.299500	0.030020	0.000000
C22	C	-0.032740	0.301700	0.060767	0.000000
C23	C	-0.047933	0.229867	0.065717	0.000000
H18	H	-0.058233	0.192967	0.055900	0.000000
C24	C	-0.016967	0.357000	0.075143	0.000000
H19	H	-0.006233	0.404367	0.071567	0.000000
C25	C	-0.047467	0.214033	0.085717	0.000000
C26	C	-0.017367	0.340733	0.095033	0.000000
H20	H	-0.007267	0.377867	0.104833	0.000000
C27	C	-0.032717	0.269567	0.100320	0.000000
C28	C	-0.035327	0.253867	0.121867	0.000000
O7	O	0.121420	0.170533	0.009127	0.000000
O8	O	-0.062833	0.274167	0.023353	0.000000
O9	O	-0.038890	0.411567	0.033387	0.000000
O10	O	-0.034953	0.313867	0.132630	0.000000
O11	O	-0.038350	0.182567	0.126833	0.000000
S2	S	-0.034783	0.326127	0.035467	0.000000
Ca2	Ca	-0.132177	0.256947	0.014390	0.000000
O12	O	0.135590	0.300333	0.008597	0.000000
N5	N	-0.115468	0.038438	-0.159045	0.000000
H21	H	-0.138445	0.077185	-0.160632	0.000000
H22	H	-0.091729	0.059068	-0.163697	0.000000
N6	N	-0.229843	0.029615	-0.076692	0.000000
H23	H	-0.240431	0.068565	-0.088191	0.000000
H24	H	-0.231162	0.048412	-0.062635	0.000000
C29	C	-0.052400	-0.076167	-0.155163	0.000000
C30	C	-0.088470	-0.096167	-0.147943	0.000000
C31	C	-0.118033	-0.040867	-0.150550	0.000000
C32	C	-0.092833	-0.169367	-0.138960	0.000000
H25	H	-0.072867	-0.206300	-0.136867	0.000000
C33	C	-0.152400	-0.058967	-0.145037	0.000000
H26	H	-0.172300	-0.021867	-0.146967	0.000000
C34	C	-0.126867	-0.187667	-0.133097	0.000000
H27	H	-0.129700	-0.236267	-0.126833	0.000000
C35	C	-0.156583	-0.132833	-0.136647	0.000000
C36	C	-0.199407	-0.135033	-0.105900	0.000000
C37	C	-0.214600	-0.063200	-0.100950	0.000000
H28	H	-0.224900	-0.026300	-0.110767	0.000000
C38	C	-0.183633	-0.190333	-0.091523	0.000000
H29	H	-0.172900	-0.237700	-0.095100	0.000000
C39	C	-0.214133	-0.047367	-0.080950	0.000000
C40	C	-0.184033	-0.174067	-0.071633	0.000000
H30	H	-0.173933	-0.211200	-0.061833	0.000000
C41	C	-0.199383	-0.102900	-0.066347	0.000000
C42	C	-0.201993	-0.087200	-0.044800	0.000000
O13	O	-0.045247	-0.003867	-0.157540	0.000000
O14	O	-0.229500	-0.107500	-0.143313	0.000000
O15	O	-0.205557	-0.244900	-0.133280	0.000000
O16	O	-0.201620	-0.147200	-0.034037	0.000000
O17	O	-0.205017	-0.015900	-0.039833	0.000000
S3	S	-0.201450	-0.159460	-0.131200	0.000000
Ca3	Ca	-0.298843	-0.090280	-0.152277	0.000000
O18	O	-0.031077	-0.133667	-0.158070	0.000000
N7	N	-0.051198	-0.128229	-0.007621	0.000000
H31	H	-0.028222	-0.089481	-0.006034	0.000000
H32	H	-0.074938	-0.107599	-0.002970	0.000000
N8	N	0.063176	-0.137052	-0.089975	0.000000
H33	H	0.073764	-0.098101	-0.078476	0.000000
H34	H	0.064496	-0.118255	-0.104031	0.000000
C43	C	-0.114267	-0.242833	-0.011503	0.000000
C44	C	-0.078197	-0.262833	-0.018723	0.000000
C45	C	-0.048633	-0.207533	-0.016117	0.000000
C46	C	-0.073833	-0.336033	-0.027707	0.000000
H35	H	-0.093800	-0.372967	-0.029800	0.000000
C47	C	-0.014267	-0.225633	-0.021630	0.000000
H36	H	0.005633	-0.188533	-0.019700	0.000000
C48	C	-0.039800	-0.354333	-0.033570	0.000000
H37	H	-0.036967	-0.402933	-0.039833	0.000000
C49	C	-0.010083	-0.299500	-0.030020	0.000000
C50	C	0.032740	-0.301700	-0.060767	0.000000
C51	C	0.047933	-0.229867	-0.065717	0.000000
H38	H	0.058233	-0.192967	-0.055900	0.000000
C52	C	0.016967	-0.357000	-0.075143	0.000000
H39	H	0.006233	-0.404367	-0.071567	0.000000
C53	C	0.047467	-0.214033	-0.085717	0.000000
C54	C	0.017367	-0.340733	-0.095033	0.000000
H40	H	0.007267	-0.377867	-0.104833	0.000000
C55	C	0.032717	-0.269567	-0.100320	0.000000
C56	C	0.035327	-0.253867	-0.121867	0.000000
O19	O	-0.121420	-0.170533	-0.009127	0.000000
O20	O	0.062833	-0.274167	-0.023353	0.000000
O21	O	0.038890	-0.411567	-0.033387	0.000000
O22	O	0.034953	-0.313867	-0.132630	0.000000
O23	O	0.038350	-0.182567	-0.126833	0.000000
S4	S	0.034783	-0.326127	-0.035467	0.000000
Ca4	Ca	0.132177	-0.256947	-0.014390	0.000000
O24	O	-0.135590	-0.300333	-0.008597	0.000000
N9	N	0.115468	-0.038438	0.492379	0.000000
H41	H	0.138445	-0.077185	0.493966	0.000000
H42	H	0.091729	-0.059068	0.497030	0.000000
N10	N	0.229843	-0.029615	0.410025	0.000000
H43	H	0.240431	-0.068565	0.421524	0.000000
H44	H	0.231162	-0.048412	0.395969	0.000000
C57	C	0.052400	0.076167	0.488497	0.000000
C58	C	0.088470	0.096167	0.481277	0.000000
C59	C	0.118033	0.040867	0.483883	0.000000
C60	C	0.092833	0.169367	0.472293	0.000000
H45	H	0.072867	0.206300	0.470200	0.000000
C61	C	0.152400	0.058967	0.478370	0.000000
H46	H	0.172300	0.021867	0.480300	0.000000
C62	C	0.126867	0.187667	0.466430	0.000000
H47	H	0.129700	0.236267	0.460167	0.000000
C63	C	0.156583	0.132833	0.469980	0.000000
C64	C	0.199407	0.135033	0.439233	0.000000
C65	C	0.214600	0.063200	0.434283	0.000000
H48	H	0.224900	0.026300	0.444100	0.000000
C66	C	0.183633	0.190333	0.424857	0.000000
H49	H	0.172900	0.237700	0.428433	0.000000
C67	C	0.214133	0.047367	0.414283	0.000000
C68	C	0.184033	0.174067	0.404967	0.000000
H50	H	0.173933	0.211200	0.395167	0.000000
C69	C	0.199383	0.102900	0.399680	0.000000
C70	C	0.201993	0.087200	0.378133	0.000000
O25	O	0.045247	0.003867	0.490873	0.000000
O26	O	0.229500	0.107500	0.476647	0.000000
O27	O	0.205557	0.244900	0.466613	0.000000
O28	O	0.201620	0.147200	0.367370	0.000000
O29	O	0.205017	0.015900	0.373167	0.000000
S5	S	0.201450	0.159460	0.464533	0.000000
Ca5	Ca	0.298843	0.090280	0.485610	0.000000
O30	O	0.031077	0.133667	0.491403	0.000000
N11	N	0.051198	0.128229	0.340955	0.000000
H51	H	0.028222	0.089481	0.339368	0.000000
H52	H	0.074938	0.107599	0.336303	0.000000
N12	N	-0.063176	0.137052	0.423308	0.000000
H53	H	-0.073764	0.098101	0.411809	0.000000
H54	H	-0.064496	0.118255	0.437365	0.000000
C71	C	0.114267	0.242833	0.344837	0.000000
C72	C	0.078197	0.262833	0.352057	0.000000
C73	C	0.048633	0.207533	0.349450	0.000000
C74	C	0.073833	0.336033	0.361040	0.000000
H55	H	0.093800	0.372967	0.363133	0.000000
C75	C	0.014267	0.225633	0.354963	0.000000
H56	H	-0.005633	0.188533	0.353033	0.000000
C76	C	0.039800	0.354333	0.366903	0.000000
H57	H	0.036967	0.402933	0.373167	0.000000
C77	C	0.010083	0.299500	0.363353	0.000000
C78	C	-0.032740	0.301700	0.394100	0.000000
C79	C	-0.047933	0.229867	0.399050	0.000000
H58	H	-0.058233	0.192967	0.389233	0.000000
C80	C	-0.016967	0.357000	0.408477	0.000000
H59	H	-0.006233	0.404367	0.404900	0.000000
C81	C	-0.047467	0.214033	0.419050	0.000000
C82	C	-0.017367	0.340733	0.428367	0.000000
H60	H	-0.007267	0.377867	0.438167	0.000000
C83	C	-0.032717	0.269567	0.433653	0.000000
C84	C	-0.035327	0.253867	0.455200	0.000000
O31	O	0.121420	0.170533	0.342460	0.000000
O32	O	-0.062833	0.274167	0.356687	0.000000
O33	O	-0.038890	0.411567	0.366720	0.000000
O34	O	-0.034953	0.313867	0.465963	0.000000
O35	O	-0.038350	0.182567	0.460167	0.000000
S6	S	-0.034783	0.326127	0.368800	0.000000
Ca6	Ca	-0.132177	0.256947	0.347723	0.000000
O36	O	0.135590	0.300333	0.341930	0.000000
N13	N	-0.115468	0.038438	0.174288	0.000000
H61	H	-0.138445	0.077185	0.172701	0.000000
H62	H	-0.091729	0.059068	0.169636	0.000000
N14	N	-0.229843	0.029615	0.256642	0.000000
H63	H	-0.240431	0.068565	0.245143	0.000000
H64	H	-0.231162	0.048412	0.270698	0.000000
C85	C	-0.052400	-0.076167	0.178170	0.000000
C86	C	-0.088470	-0.096167	0.185390	0.000000
C87	C	-0.118033	-0.040867	0.182783	0.000000
C88	C	-0.092833	-0.169367	0.194373	0.000000
H65	H	-0.072867	-0.206300	0.196467	0.000000
C89	C	-0.152400	-0.058967	0.188297	0.000000
H66	H	-0.172300	-0.021867	0.186367	0.000000
C90	C	-0.126867	-0.187667	0.200237	0.000000
H67	H	-0.129700	-0.236267	0.206500	0.000000
C91	C	-0.156583	-0.132833	0.196687	0.000000
C92	C	-0.199407	-0.135033	0.227433	0.000000
C93	C	-0.214600	-0.063200	0.232383	0.000000
H68	H	-0.224900	-0.026300	0.222567	0.000000
C94	C	-0.183633	-0.190333	0.241810	0.000000
H69	H	-0.172900	-0.237700	0.238233	0.000000
C95	C	-0.214133	-0.047367	0.252383	0.000000
C96	C	-0.184033	-0.174067	0.261700	0.000000
H70	H	-0.173933	-0.211200	0.271500	0.000000
C97	C	-0.199383	-0.102900	0.266987	0.000000
C98	C	-0.201993	-0.087200	0.288533	0.000000
O37	O	-0.045247	-0.003867	0.175793	0.000000
O38	O	-0.229500	-0.107500	0.190020	0.000000
O39	O	-0.205557	-0.244900	0.200053	0.000000
O40	O	-0.201620	-0.147200	0.299297	0.000000
O41	O	-0.205017	-0.015900	0.293500	0.000000
S7	S	-0.201450	-0.159460	0.202133	0.000000
Ca7	Ca	-0.298843	-0.090280	0.181057	0.000000
O42	O	-0.031077	-0.133667	0.175263	0.000000
N15	N	-0.051198	-0.128229	0.325712	0.000000
H71	H	-0.028222	-0.089481	0.327299	0.000000
H72	H	-0.074938	-0.107599	0.330364	0.000000
N16	N	0.063176	-0.137052	0.243358	0.000000
H73	H	0.073764	-0.098101	0.254857	0.000000
H74	H	0.064496	-0.118255	0.229302	0.000000
C99	C	-0.114267	-0.242833	0.321830	0.000000
C100	C	-0.078197	-0.262833	0.314610	0.000000
C101	C	-0.048633	-0.207533	0.317217	0.000000
C102	C	-0.073833	-0.336033	0.305627	0.000000
H75	H	-0.093800	-0.372967	0.303533	0.000000
C103	C	-0.014267	-0.225633	0.311703	0.000000
H76	H	0.005633	-0.188533	0.313633	0.000000
C104	C	-0.039800	-0.354333	0.299763	0.000000
H77	H	-0.036967	-0.402933	0.293500	0.000000
C105	C	-0.010083	-0.299500	0.303313	0.000000
C106	C	0.032740	-0.301700	0.272567	0.000000
C107	C	0.047933	-0.229867	0.267617	0.000000
H78	H	0.058233	-0.192967	0.277433	0.000000
C108	C	0.016967	-0.357000	0.258190	0.000000
H79	H	0.006233	-0.404367	0.261767	0.000000
C109	C	0.047467	-0.214033	0.247617	0.000000
C110	C	0.017367	-0.340733	0.238300	0.000000
H80	H	0.007267	-0.377867	0.228500	0.000000
C111	C	0.032717	-0.269567	0.233013	0.000000
C112	C	0.035327	-0.253867	0.211467	0.000000
O43	O	-0.121420	-0.170533	0.324207	0.000000
O44	O	0.062833	-0.274167	0.309980	0.000000
O45	O	0.038890	-0.411567	0.299947	0.000000
O46	O	0.034953	-0.313867	0.200703	0.000000
O47	O	0.038350	-0.182567	0.206500	0.000000
S8	S	0.034783	-0.326127	0.297867	0.000000
Ca8	Ca	0.132177	-0.256947	0.318943	0.000000
O48	O	-0.135590	-0.300333	0.324737	0.000000
N17	N	0.115468	-0.038438	0.825712	0.000000
H81	H	0.138445	-0.077185	0.827299	0.000000
H82	H	0.091729	-0.059068	0.830364	0.000000
N18	N	0.229843	-0.029615	0.743358	0.000000
H83	H	0.240431	-0.068565	0.754857	0.000000
H84	H	0.231162	-0.048412	0.729302	0.000000
C113	C	0.052400	0.076167	0.821830	0.000000
C114	C	0.088470	0.096167	0.814610	0.000000
C115	C	0.118033	0.040867	0.817217	0.000000
C116	C	0.092833	0.169367	0.805627	0.000000
H85	H	0.072867	0.206300	0.803533	0.000000
C117	C	0.152400	0.058967	0.811703	0.000000
H86	H	0.172300	0.021867	0.813633	0.000000
C118	C	0.126867	0.187667	0.799763	0.000000
H87	H	0.129700	0.236267	0.793500	0.000000
C119	C	0.156583	0.132833	0.803313	0.000000
C120	C	0.199407	0.135033	0.772567	0.000000
C121	C	0.214600	0.063200	0.767617	0.000000
H88	H	0.224900	0.026300	0.777433	0.000000
C122	C	0.183633	0.190333	0.758190	0.000000
H89	H	0.172900	0.237700	0.761767	0.000000
C123	C	0.214133	0.047367	0.747617	0.000000
C124	C	0.184033	0.174067	0.738300	0.000000
H90	H	0.173933	0.211200	0.728500	0.000000
C125	C	0.199383	0.102900	0.733013	0.000000
C126	C	0.201993	0.087200	0.711467	0.000000
O49	O	0.045247	0.003867	0.824207	0.000000
O50	O	0.229500	0.107500	0.809980	0.000000
O51	O	0.205557	0.244900	0.799947	0.000000
O52	O	0.201620	0.147200	0.700703	0.000000
O53	O	0.205017	0.015900	0.706500	0.000000
S9	S	0.201450	0.159460	0.797867	0.000000
Ca9	Ca	0.298843	0.090280	0.818943	0.000000
O54	O	0.031077	0.133667	0.824737	0.000000
N19	N	0.051198	0.128229	0.674288	0.000000
H91	H	0.028222	0.089481	0.672701	0.000000
H92	H	0.074938	0.107599	0.669636	0.000000
N20	N	-0.063176	0.137052	0.756642	0.000000
H93	H	-0.073764	0.098101	0.745143	0.000000
H94	H	-0.064496	0.118255	0.770698	0.000000
C127	C	0.114267	0.242833	0.678170	0.000000
C128	C	0.078197	0.262833	0.685390	0.000000
C129	C	0.048633	0.207533	0.682783	0.000000
C130	C	0.073833	0.336033	0.694373	0.000000
H95	H	0.093800	0.372967	0.696467	0.000000
C131	C	0.014267	0.225633	0.688297	0.000000
H96	H	-0.005633	0.188533	0.686367	0.000000
C132	C	0.039800	0.354333	0.700237	0.000000
H97	H	0.036967	0.402933	0.706500	0.000000
C133	C	0.010083	0.299500	0.696687	0.000000
C134	C	-0.032740	0.301700	0.727433	0.000000
C135	C	-0.047933	0.229867	0.732383	0.000000
H98	H	-0.058233	0.192967	0.722567	0.000000
C136	C	-0.016967	0.357000	0.741810	0.000000
H99	H	-0.006233	0.404367	0.738233	0.000000
C137	C	-0.047467	0.214033	0.752383	0.000000
C138	C	-0.017367	0.340733	0.761700	0.000000
H100	H	-0.007267	0.377867	0.771500	0.000000
C139	C	-0.032717	0.269567	0.766987	0.000000
C140	C	-0.035327	0.253867	0.788533	0.000000
O55	O	0.121420	0.170533	0.675793	0.000000
O56	O	-0.062833	0.274167	0.690020	0.000000
O57	O	-0.038890	0.411567	0.700053	0.000000
O58	O	-0.034953	0.313867	0.799297	0.000000
O59	O	-0.038350	0.182567	0.793500	0.000000
S10	S	-0.034783	0.326127	0.702133	0.000000
Ca10	Ca	-0.132177	0.256947	0.681057	0.000000
O60	O	0.135590	0.300333	0.675263	0.000000
N21	N	-0.115468	0.038438	0.507621	0.000000
H101	H	-0.138445	0.077185	0.506034	0.000000
H102	H	-0.091729	0.059068	0.502970	0.000000
N22	N	-0.229843	0.029615	0.589975	0.000000
H103	H	-0.240431	0.068565	0.578476	0.000000
H104	H	-0.231162	0.048412	0.604031	0.000000
C141	C	-0.052400	-0.076167	0.511503	0.000000
C142	C	-0.088470	-0.096167	0.518723	0.000000
C143	C	-0.118033	-0.040867	0.516117	0.000000
C144	C	-0.092833	-0.169367	0.527707	0.000000
H105	H	-0.072867	-0.206300	0.529800	0.000000
C145	C	-0.152400	-0.058967	0.521630	0.000000
H106	H	-0.172300	-0.021867	0.519700	0.000000
C146	C	-0.126867	-0.187667	0.533570	0.000000
H107	H	-0.129700	-0.236267	0.539833	0.000000
C147	C	-0.156583	-0.132833	0.530020	0.000000
C148	C	-0.199407	-0.135033	0.560767	0.000000
C149	C	-0.214600	-0.063200	0.565717	0.000000
H108	H	-0.224900	-0.026300	0.555900	0.000000
C150	C	-0.183633	-0.190333	0.575143	0.000000
H109	H	-0.172900	-0.237700	0.571567	0.000000
C151	C	-0.214133	-0.047367	0.585717	0.000000
C152	C	-0.184033	-0.174067	0.595033	0.000000
H110	H	-0.173933	-0.211200	0.604833	0.000000
C153	C	-0.199383	-0.102900	0.600320	0.000000
C154	C	-0.201993	-0.087200	0.621867	0.000000
O61	O	-0.045247	-0.003867	0.509127	0.000000
O62	O	-0.229500	-0.107500	0.523353	0.000000
O63	O	-0.205557	-0.244900	0.533387	0.000000
O64	O	-0.201620	-0.147200	0.632630	0.000000
O65	O	-0.205017	-0.015900	0.626833	0.000000
S11	S	-0.201450	-0.159460	0.535467	0.000000
Ca11	Ca	-0.298843	-0.090280	0.514390	0.000000
O66	O	-0.031077	-0.133667	0.508597	0.000000
N23	N	-0.051198	-0.128229	0.659045	0.000000
H111	H	-0.028222	-0.089481	0.660632	0.000000
H112	H	-0.074938	-0.107599	0.663697	0.000000
N24	N	0.063176	-0.137052	0.576692	0.000000
H113	H	0.073764	-0.098101	0.588191	0.000000
H114	H	0.064496	-0.118255	0.562635	0.000000
C155	C	-0.114267	-0.242833	0.655163	0.000000
C156	C	-0.078197	-0.262833	0.647943	0.000000
C157	C	-0.048633	-0.207533	0.650550	0.000000
C158	C	-0.073833	-0.336033	0.638960	0.000000
H115	H	-0.093800	-0.372967	0.636867	0.000000
C159	C	-0.014267	-0.225633	0.645037	0.000000
H116	H	0.005633	-0.188533	0.646967	0.000000
C160	C	-0.039800	-0.354333	0.633097	0.000000
H117	H	-0.036967	-0.402933	0.626833	0.000000
C161	C	-0.010083	-0.299500	0.636647	0.000000
C162	C	0.032740	-0.301700	0.605900	0.000000
C163	C	0.047933	-0.229867	0.600950	0.000000
H118	H	0.058233	-0.192967	0.610767	0.000000
C164	C	0.016967	-0.357000	0.591523	0.000000
H119	H	0.006233	-0.404367	0.595100	0.000000
C165	C	0.047467	-0.214033	0.580950	0.000000
C166	C	0.017367	-0.340733	0.571633	0.000000
H120	H	0.007267	-0.377867	0.561833	0.000000
C167	C	0.032717	-0.269567	0.566347	0.000000
C168	C	0.035327	-0.253867	0.544800	0.000000
O67	O	-0.121420	-0.170533	0.657540	0.000000
O68	O	0.062833	-0.274167	0.643313	0.000000
O69	O	0.038890	-0.411567	0.633280	0.000000
O70	O	0.034953	-0.313867	0.534037	0.000000
O71	O	0.038350	-0.182567	0.539833	0.000000
S12	S	0.034783	-0.326127	0.631200	0.000000
Ca12	Ca	0.132177	-0.256947	0.652277	0.000000
O72	O	-0.135590	-0.300333	0.658070	0.000000
N25	N	0.115468	0.294896	0.159045	0.000000
H121	H	0.138445	0.256148	0.160632	0.000000
H122	H	0.091729	0.274266	0.163697	0.000000
N26	N	0.229843	0.303719	0.076692	0.000000
H123	H	0.240431	0.264768	0.088191	0.000000
H124	H	0.231162	0.284921	0.062635	0.000000
C169	C	0.052400	0.409500	0.155163	0.000000
C170	C	0.088470	0.429500	0.147943	0.000000
C171	C	0.118033	0.374200	0.150550	0.000000
C172	C	0.092833	0.502700	0.138960	0.000000
H125	H	0.072867	0.539633	0.136867	0.000000
C173	C	0.152400	0.392300	0.145037	0.000000
H126	H	0.172300	0.355200	0.146967	0.000000
C174	C	0.126867	0.521000	0.133097	0.000000
H127	H	0.129700	0.569600	0.126833	0.000000
C175	C	0.156583	0.466167	0.136647	0.000000
C176	C	0.199407	0.468367	0.105900	0.000000
C177	C	0.214600	0.396533	0.100950	0.000000
H128	H	0.224900	0.359633	0.110767	0.000000
C178	C	0.183633	0.523667	0.091523	0.000000
H129	H	0.172900	0.571033	0.095100	0.000000
C179	C	0.214133	0.380700	0.080950	0.000000
C180	C	0.184033	0.507400	0.071633	0.000000
H130	H	0.173933	0.544533	0.061833	0.000000
C181	C	0.199383	0.436233	0.066347	0.000000
C182	C	0.201993	0.420533	0.044800	0.000000
O73	O	0.045247	0.337200	0.157540	0.000000
O74	O	0.229500	0.440833	0.143313	0.000000
O75	O	0.205557	0.578233	0.133280	0.000000
O76	O	0.201620	0.480533	0.034037	0.000000
O77	O	0.205017	0.349233	0.039833	0.000000
S13	S	0.201450	0.492793	0.131200	0.000000
Ca13	Ca	0.298843	0.423613	0.152277	0.000000
O78	O	0.031077	0.467000	0.158070	0.000000
N27	N	0.051198	0.461562	0.007621	0.000000
H131	H	0.028222	0.422815	0.006034	0.000000
H132	H	0.074938	0.440932	0.002970	0.000000
N28	N	-0.063176	0.470385	0.089975	0.000000
H133	H	-0.073764	0.431435	0.078476	0.000000
H134	H	-0.064496	0.451588	0.104031	0.000000
C183	C	0.114267	0.576167	0.011503	0.000000
C184	C	0.078197	0.596167	0.018723	0.000000
C185	C	0.048633	0.540867	0.016117	0.000000
C186	C	0.073833	0.669367	0.027707	0.000000
H135	H	0.093800	0.706300	0.029800	0.000000
C187	C	0.014267	0.558967	0.021630	0.000000
H136	H	-0.005633	0.521867	0.019700	0.000000
C188	C	0.039800	0.687667	0.033570	0.000000
H137	H	0.036967	0.736267	0.039833	0.000000
C189	C	0.010083	0.632833	0.030020	0.000000
C190	C	-0.032740	0.635033	0.060767	0.000000
C191	C	-0.047933	0.563200	0.065717	0.000000
H138	H	-0.058233	0.526300	0.055900	0.000000
C192	C	-0.016967	0.690333	0.075143	0.000000
H139	H	-0.006233	0.737700	0.071567	0.000000
C193	C	-0.047467	0.547367	0.085717	0.000000
C194	C	-0.017367	0.674067	0.095033	0.000000
H140	H	-0.007267	0.711200	0.104833	0.000000
C195	C	-0.032717	0.602900	0.100320	0.000000
C196	C	-0.035327	0.587200	0.121867	0.000000
O79	O	0.121420	0.503867	0.009127	0.000000
O80	O	-0.062833	0.607500	0.023353	0.000000
O81	O	-0.038890	0.744900	0.033387	0.000000
O82	O	-0.034953	0.647200	0.132630	0.000000
O83	O	-0.038350	0.515900	0.126833	0.000000
S14	S	-0.034783	0.659460	0.035467	0.000000
Ca14	Ca	-0.132177	0.590280	0.014390	0.000000
O84	O	0.135590	0.633667	0.008597	0.000000
N29	N	-0.115468	0.371771	-0.159045	0.000000
H141	H	-0.138445	0.410519	-0.160632	0.000000
H142	H	-0.091729	0.392401	-0.163697	0.000000
N30	N	-0.229843	0.362948	-0.076692	0.000000
H143	H	-0.240431	0.401899	-0.088191	0.000000
H144	H	-0.231162	0.381745	-0.062635	0.000000
C197	C	-0.052400	0.257167	-0.155163	0.000000
C198	C	-0.088470	0.237167	-0.147943	0.000000
C199	C	-0.118033	0.292467	-0.150550	0.000000
C200	C	-0.092833	0.163967	-0.138960	0.000000
H145	H	-0.072867	0.127033	-0.136867	0.000000
C201	C	-0.152400	0.274367	-0.145037	0.000000
H146	H	-0.172300	0.311467	-0.146967	0.000000
C202	C	-0.126867	0.145667	-0.133097	0.000000
H147	H	-0.129700	0.097067	-0.126833	0.000000
C203	C	-0.156583	0.200500	-0.136647	0.000000
C204	C	-0.199407	0.198300	-0.105900	0.000000
C205	C	-0.214600	0.270133	-0.100950	0.000000
H148	H	-0.224900	0.307033	-0.110767	0.000000
C206	C	-0.183633	0.143000	-0.091523	0.000000
H149	H	-0.172900	0.095633	-0.095100	0.000000
C207	C	-0.214133	0.285967	-0.080950	0.000000
C208	C	-0.184033	0.159267	-0.071633	0.000000
H150	H	-0.173933	0.122133	-0.061833	0.000000
C209	C	-0.199383	0.230433	-0.066347	0.000000
C210	C	-0.201993	0.246133	-0.044800	0.000000
O85	O	-0.045247	0.329467	-0.157540	0.000000
O86	O	-0.229500	0.225833	-0.143313	0.000000
O87	O	-0.205557	0.088433	-0.133280	0.000000
O88	O	-0.201620	0.186133	-0.034037	0.000000
O89	O	-0.205017	0.317433	-0.039833	0.000000
S15	S	-0.201450	0.173873	-0.131200	0.000000
Ca15	Ca	-0.298843	0.243053	-0.152277	0.000000
O90	O	-0.031077	0.199667	-0.158070	0.000000
N31	N	-0.051198	0.205104	-0.007621	0.000000
H151	H	-0.028222	0.243852	-0.006034	0.000000
H152	H	-0.074938	0.225734	-0.002970	0.000000
N32	N	0.063176	0.196281	-0.089975	0.000000
H153	H	0.073764	0.235232	-0.078476	0.000000
H154	H	0.064496	0.215079	-0.104031	0.000000
C211	C	-0.114267	0.090500	-0.011503	0.000000
C212	C	-0.078197	0.070500	-0.018723	0.000000
C213	C	-0.048633	0.125800	-0.016117	0.000000
C214	C	-0.073833	-0.002700	-0.027707	0.000000
H155	H	-0.093800	-0.039633	-0.029800	0.000000
C215	C	-0.014267	0.107700	-0.021630	0.000000
H156	H	0.005633	0.144800	-0.019700	0.000000
C216	C	-0.039800	-0.021000	-0.033570	0.000000
H157	H	-0.036967	-0.069600	-0.039833	0.000000
C217	C	-0.010083	0.033833	-0.030020	0.000000
C218	C	0.032740	0.031633	-0.060767	0.000000
C219	C	0.047933	0.103467	-0.065717	0.000000
H158	H	0.058233	0.140367	-0.055900	0.000000
C220	C	0.016967	-0.023667	-0.075143	0.000000
H159	H	0.006233	-0.071033	-0.071567	0.000000
C221	C	0.047467	0.119300	-0.085717	0.000000
C222	C	0.017367	-0.007400	-0.095033	0.000000
H160	H	0.007267	-0.044533	-0.104833	0.000000
C223	C	0.032717	0.063767	-0.100320	0.000000
C224	C	0.035327	0.079467	-0.121867	0.000000
O91	O	-0.121420	0.162800	-0.009127	0.000000
O92	O	0.062833	0.059167	-0.023353	0.000000
O93	O	0.038890	-0.078233	-0.033387	0.000000
O94	O	0.034953	0.019467	-0.132630	0.000000
O95	O	0.038350	0.150767	-0.126833	0.000000
S16	S	0.034783	0.007207	-0.035467	0.000000
Ca16	Ca	0.132177	0.076387	-0.014390	0.000000
O96	O	-0.135590	0.033000	-0.008597	0.000000
N33	N	0.115468	0.294896	0.492379	0.000000
H161	H	0.138445	0.256148	0.493966	0.000000
H162	H	0.091729	0.274266	0.497030	0.000000
N34	N	0.229843	0.303719	0.410025	0.000000
H163	H	0.240431	0.264768	0.421524	0.000000
H164	H	0.231162	0.284921	0.395969	0.000000
C225	C	0.052400	0.409500	0.488497	0.000000
C226	C	0.088470	0.429500	0.481277	0.000000
C227	C	0.118033	0.374200	0.483883	0.000000
C228	C	0.092833	0.502700	0.472293	0.000000
H165	H	0.072867	0.539633	0.470200	0.000000
C229	C	0.152400	0.392300	0.478370	0.000000
H166	H	0.172300	0.355200	0.480300	0.000000
C230	C	0.126867	0.521000	0.466430	0.000000
H167	H	0.129700	0.569600	0.460167	0.000000
C231	C	0.156583	0.466167	0.469980	0.000000
C232	C	0.199407	0.468367	0.439233	0.000000
C233	C	0.214600	0.396533	0.434283	0.000000
H168	H	0.224900	0.359633	0.444100	0.000000
C234	C	0.183633	0.523667	0.424857	0.000000
H169	H	0.172900	0.571033	0.428433	0.000000
C235	C	0.214133	0.380700	0.414283	0.000000
C236	C	0.184033	0.507400	0.404967	0.000000
H170	H	0.173933	0.544533	0.395167	0.000000
C237	C	0.199383	0.436233	0.399680	0.000000
C238	C	0.201993	0.420533	0.378133	0.000000
O97	O	0.045247	0.337200	0.490873	0.000000
O98	O	0.229500	0.440833	0.476647	0.000000
O99	O	0.205557	0.578233	0.466613	0.000000
O100	O	0.201620	0.480533	0.367370	0.000000
O101	O	0.205017	0.349233	0.373167	0.000000
S17	S	0.201450	0.492793	0.464533	0.000000
Ca17	Ca	0.298843	0.423613	0.485610	0.000000
O102	O	0.031077	0.467000	0.491403	0.000000
N35	N	0.051198	0.461562	0.340955	0.000000
H171	H	0.028222	0.422815	0.339368	0.000000
H172	H	0.074938	0.440932	0.336303	0.000000
N36	N	-0.063176	0.470385	0.423308	0.000000
H173	H	-0.073764	0.431435	0.411809	0.000000
H174	H	-0.064496	0.451588	0.437365	0.000000
C239	C	0.114267	0.576167	0.344837	0.000000
C240	C	0.078197	0.596167	0.352057	0.000000
C241	C	0.048633	0.540867	0.349450	0.000000
C242	C	0.073833	0.669367	0.361040	0.000000
H175	H	0.093800	0.706300	0.363133	0.000000
C243	C	0.014267	0.558967	0.354963	0.000000
H176	H	-0.005633	0.521867	0.353033	0.000000
C244	C	0.039800	0.687667	0.366903	0.000000
H177	H	0.036967	0.736267	0.373167	0.000000
C245	C	0.010083	0.632833	0.363353	0.000000
C246	C	-0.032740	0.635033	0.394100	0.000000
C247	C	-0.047933	0.563200	0.399050	0.000000
H178	H	-0.058233	0.526300	0.389233	0.000000
C248	C	-0.016967	0.690333	0.408477	0.000000
H179	H	-0.006233	0.737700	0.404900	0.000000
C249	C	-0.047467	0.547367	0.419050	0.000000
C250	C	-0.017367	0.674067	0.428367	0.000000
H180	H	-0.007267	0.711200	0.438167	0.000000
C251	C	-0.032717	0.602900	0.433653	0.000000
C252	C	-0.035327	0.587200	0.455200	0.000000
O103	O	0.121420	0.503867	0.342460	0.000000
O104	O	-0.062833	0.607500	0.356687	0.000000
O105	O	-0.038890	0.744900	0.366720	0.000000
O106	O	-0.034953	0.647200	0.465963	0.000000
O107	O	-0.038350	0.515900	0.460167	0.000000
S18	S	-0.034783	0.659460	0.368800	0.000000
Ca18	Ca	-0.132177	0.590280	0.347723	0.000000
O108	O	0.135590	0.633667	0.341930	0.000000
N37	N	-0.115468	0.371771	0.174288	0.000000
H181	H	-0.138445	0.410519	0.172701	0.000000
H182	H	-0.091729	0.392401	0.169636	0.000000
N38	N	-0.229843	0.362948	0.256642	0.000000
H183	H	-0.240431	0.401899	0.245143	0.000000
H184	H	-0.231162	0.381745	0.270698	0.000000
C253	C	-0.052400	0.257167	0.178170	0.000000
C254	C	-0.088470	0.237167	0.185390	0.000000
C255	C	-0.118033	0.292467	0.182783	0.000000
C256	C	-0.092833	0.163967	0.194373	0.000000
H185	H	-0.072867	0.127033	0.196467	0.000000
C257	C	-0.152400	0.274367	0.188297	0.000000
H186	H	-0.172300	0.311467	0.186367	0.000000
C258	C	-0.126867	0.145667	0.200237	0.000000
H187	H	-0.129700	0.097067	0.206500	0.000000
C259	C	-0.156583	0.200500	0.196687	0.000000
C260	C	-0.199407	0.198300	0.227433	0.000000
C261	C	-0.214600	0.270133	0.232383	0.000000
H188	H	-0.224900	0.307033	0.222567	0.000000
C262	C	-0.183633	0.143000	0.241810	0.000000
H189	H	-0.172900	0.095633	0.238233	0.000000
C263	C	-0.214133	0.285967	0.252383	0.000000
C264	C	-0.184033	0.159267	0.261700	0.000000
H190	H	-0.173933	0.122133	0.271500	0.000000
C265	C	-0.199383	0.230433	0.266987	0.000000
C266	C	-0.201993	0.246133	0.288533	0.000000
O109	O	-0.045247	0.329467	0.175793	0.000000
O110	O	-0.229500	0.225833	0.190020	0.000000
O111	O	-0.205557	0.088433	0.200053	0.000000
O112	O	-0.201620	0.186133	0.299297	0.000000
O113	O	-0.205017	0.317433	0.293500	0.000000
S19	S	-0.201450	0.173873	0.202133	0.000000
Ca19	Ca	-0.298843	0.243053	0.181057	0.000000
O114	O	-0.031077	0.199667	0.175263	0.000000
N39	N	-0.051198	0.205104	0.325712	0.000000
H191	H	-0.028222	0.243852	0.327299	0.000000
H192	H	-0.074938	0.225734	0.330364	0.000000
N40	N	0.063176	0.196281	0.243358	0.000000
H193	H	0.073764	0.235232	0.254857	0.000000
H194	H	0.064496	0.215079	0.229302	0.000000
C267	C	-0.114267	0.090500	0.321830	0.000000
C268	C	-0.078197	0.070500	0.314610	0.000000
C269	C	-0.048633	0.125800	0.317217	0.000000
C270	C	-0.073833	-0.002700	0.305627	0.000000
H195	H	-0.093800	-0.039633	0.303533	0.000000
C271	C	-0.014267	0.107700	0.311703	0.000000
H196	H	0.005633	0.144800	0.313633	0.000000
C272	C	-0.039800	-0.021000	0.299763	0.000000
H197	H	-0.036967	-0.069600	0.293500	0.000000
C273	C	-0.010083	0.033833	0.303313	0.000000
C274	C	0.032740	0.031633	0.272567	0.000000
C275	C	0.047933	0.103467	0.267617	0.000000
H198	H	0.058233	0.140367	0.277433	0.000000
C276	C	0.016967	-0.023667	0.258190	0.000000
H199	H	0.006233	-0.071033	0.261767	0.000000
C277	C	0.047467	0.119300	0.247617	0.000000
C278	C	0.017367	-0.007400	0.238300	0.000000
H200	H	0.007267	-0.044533	0.228500	0.000000
C279	C	0.032717	0.063767	0.233013	0.000000
C280	C	0.035327	0.079467	0.211467	0.000000
O115	O	-0.121420	0.162800	0.324207	0.000000
O116	O	0.062833	0.059167	0.309980	0.000000
O117	O	0.038890	-0.078233	0.299947	0.000000
O118	O	0.034953	0.019467	0.200703	0.000000
O119	O	0.038350	0.150767	0.206500	0.000000
S20	S	0.034783	0.007207	0.297867	0.000000
Ca20	Ca	0.132177	0.076387	0.318943	0.000000
O120	O	-0.135590	0.033000	0.324737	0.000000
N41	N	0.115468	0.294896	0.825712	0.000000
H201	H	0.138445	0.256148	0.827299	0.000000
H202	H	0.091729	0.274266	0.830364	0.000000
N42	N	0.229843	0.303719	0.743358	0.000000
H203	H	0.240431	0.264768	0.754857	0.000000
H204	H	0.231162	0.284921	0.729302	0.000000
C281	C	0.052400	0.409500	0.821830	0.000000
C282	C	0.088470	0.429500	0.814610	0.000000
C283	C	0.118033	0.374200	0.817217	0.000000
C284	C	0.092833	0.502700	0.805627	0.000000
H205	H	0.072867	0.539633	0.803533	0.000000
C285	C	0.152400	0.392300	0.811703	0.000000
H206	H	0.172300	0.355200	0.813633	0.000000
C286	C	0.126867	0.521000	0.799763	0.000000
H207	H	0.129700	0.569600	0.793500	0.000000
C287	C	0.156583	0.466167	0.803313	0.000000
C288	C	0.199407	0.468367	0.772567	0.000000
C289	C	0.214600	0.396533	0.767617	0.000000
H208	H	0.224900	0.359633	0.777433	0.000000
C290	C	0.183633	0.523667	0.758190	0.000000
H209	H	0.172900	0.571033	0.761767	0.000000
C291	C	0.214133	0.380700	0.747617	0.000000
C292	C	0.184033	0.507400	0.738300	0.000000
H210	H	0.173933	0.544533	0.728500	0.000000
C293	C	0.199383	0.436233	0.733013	0.000000
C294	C	0.201993	0.420533	0.711467	0.000000
O121	O	0.045247	0.337200	0.824207	0.000000
O122	O	0.229500	0.440833	0.809980	0.000000
O123	O	0.205557	0.578233	0.799947	0.000000
O124	O	0.201620	0.480533	0.700703	0.000000
O125	O	0.205017	0.349233	0.706500	0.000000
S21	S	0.201450	0.492793	0.797867	0.000000
Ca21	Ca	0.298843	0.423613	0.818943	0.000000
O126	O	0.031077	0.467000	0.824737	0.000000
N43	N	0.051198	0.461562	0.674288	0.000000
H211	H	0.028222	0.422815	0.672701	0.000000
H212	H	0.074938	0.440932	0.669636	0.000000
N44	N	-0.063176	0.470385	0.756642	0.000000
H213	H	-0.073764	0.431435	0.745143	0.000000
H214	H	-0.064496	0.451588	0.770698	0.000000
C295	C	0.114267	0.576167	0.678170	0.000000
C296	C	0.078197	0.596167	0.685390	0.000000
C297	C	0.048633	0.540867	0.682783	0.000000
C298	C	0.073833	0.669367	0.694373	0.000000
H215	H	0.093800	0.706300	0.696467	0.000000
C299	C	0.014267	0.558967	0.688297	0.000000
H216	H	-0.005633	0.521867	0.686367	0.000000
C300	C	0.039800	0.687667	0.700237	0.000000
H217	H	0.036967	0.736267	0.706500	0.000000
C301	C	0.010083	0.632833	0.696687	0.000000
C302	C	-0.032740	0.635033	0.727433	0.000000
C303	C	-0.047933	0.563200	0.732383	0.000000
H218	H	-0.058233	0.526300	0.722567	0.000000
C304	C	-0.016967	0.690333	0.741810	0.000000
H219	H	-0.006233	0.737700	0.738233	0.000000
C305	C	-0.047467	0.547367	0.752383	0.000000
C306	C	-0.017367	0.674067	0.761700	0.000000
H220	H	-0.007267	0.711200	0.771500	0.000000
C307	C	-0.032717	0.602900	0.766987	0.000000
C308	C	-0.035327	0.587200	0.788533	0.000000
O127	O	0.121420	0.503867	0.675793	0.000000
O128	O	-0.062833	0.607500	0.690020	0.000000
O129	O	-0.038890	0.744900	0.700053	0.000000
O130	O	-0.034953	0.647200	0.799297	0.000000
O131	O	-0.038350	0.515900	0.793500	0.000000
S22	S	-0.034783	0.659460	0.702133	0.000000
Ca22	Ca	-0.132177	0.590280	0.681057	0.000000
O132	O	0.135590	0.633667	0.675263	0.000000
N45	N	-0.115468	0.371771	0.507621	0.000000
H221	H	-0.138445	0.410519	0.506034	0.000000
H222	H	-0.091729	0.392401	0.502970	0.000000
N46	N	-0.229843	0.362948	0.589975	0.000000
H223	H	-0.240431	0.401899	0.578476	0.000000
H224	H	-0.231162	0.381745	0.604031	0.000000
C309	C	-0.052400	0.257167	0.511503	0.000000
C310	C	-0.088470	0.237167	0.518723	0.000000
C311	C	-0.118033	0.292467	0.516117	0.000000
C312	C	-0.092833	0.163967	0.527707	0.000000
H225	H	-0.072867	0.127033	0.529800	0.000000
C313	C	-0.152400	0.274367	0.521630	0.000000
H226	H	-0.172300	0.311467	0.519700	0.000000
C314	C	-0.126867	0.145667	0.533570	0.000000
H227	H	-0.129700	0.097067	0.539833	0.000000
C315	C	-0.156583	0.200500	0.530020	0.000000
C316	C	-0.199407	0.198300	0.560767	0.000000
C317	C	-0.214600	0.270133	0.565717	0.000000
H228	H	-0.224900	0.307033	0.555900	0.000000
C318	C	-0.183633	0.143000	0.575143	0.000000
H229	H	-0.172900	0.095633	0.571567	0.000000
C319	C	-0.214133	0.285967	0.585717	0.000000
C320	C	-0.184033	0.159267	0.595033	0.000000
H230	H	-0.173933	0.122133	0.604833	0.000000
C321	C	-0.199383	0.230433	0.600320	0.000000
C322	C	-0.201993	0.246133	0.621867	0.000000
O133	O	-0.045247	0.329467	0.509127	0.000000
O134	O	-0.229500	0.225833	0.523353	0.000000
O135	O	-0.205557	0.088433	0.533387	0.000000
O136	O	-0.201620	0.186133	0.632630	0.000000
O137	O	-0.205017	0.317433	0.626833	0.000000
S23	S	-0.201450	0.173873	0.535467	0.000000
Ca23	Ca	-0.298843	0.243053	0.514390	0.000000
O138	O	-0.031077	0.199667	0.508597	0.000000
N47	N	-0.051198	0.205104	0.659045	0.000000
H231	H	-0.028222	0.243852	0.660632	0.000000
H232	H	-0.074938	0.225734	0.663697	0.000000
N48	N	0.063176	0.196281	0.576692	0.000000
H233	H	0.073764	0.235232	0.588191	0.000000
H234	H	0.064496	0.215079	0.562635	0.000000
C323	C	-0.114267	0.090500	0.655163	0.000000
C324	C	-0.078197	0.070500	0.647943	0.000000
C325	C	-0.048633	0.125800	0.650550	0.000000
C326	C	-0.073833	-0.002700	0.638960	0.000000
H235	H	-0.093800	-0.039633	0.636867	0.000000
C327	C	-0.014267	0.107700	0.645037	0.000000
H236	H	0.005633	0.144800	0.646967	0.000000
C328	C	-0.039800	-0.021000	0.633097	0.000000
H237	H	-0.036967	-0.069600	0.626833	0.000000
C329	C	-0.010083	0.033833	0.636647	0.000000
C330	C	0.032740	0.031633	0.605900	0.000000
C331	C	0.047933	0.103467	0.600950	0.000000
H238	H	0.058233	0.140367	0.610767	0.000000
C332	C	0.016967	-0.023667	0.591523	0.000000
H239	H	0.006233	-0.071033	0.595100	0.000000
C333	C	0.047467	0.119300	0.580950	0.000000
C334	C	0.017367	-0.007400	0.571633	0.000000
H240	H	0.007267	-0.044533	0.561833	0.000000
C335	C	0.032717	0.063767	0.566347	0.000000
C336	C	0.035327	0.079467	0.544800	0.000000
O139	O	-0.121420	0.162800	0.657540	0.000000
O140	O	0.062833	0.059167	0.643313	0.000000
O141	O	0.038890	-0.078233	0.633280	0.000000
O142	O	0.034953	0.019467	0.534037	0.000000
O143	O	0.038350	0.150767	0.539833	0.000000
S24	S	0.034783	0.007207	0.631200	0.000000
Ca24	Ca	0.132177	0.076387	0.652277	0.000000
O144	O	-0.135590	0.033000	0.658070	0.000000
N49	N	0.115468	0.628229	0.159045	0.000000
H241	H	0.138445	0.589481	0.160632	0.000000
H242	H	0.091729	0.607599	0.163697	0.000000
N50	N	0.229843	0.637052	0.076692	0.000000
H243	H	0.240431	0.598101	0.088191	0.000000
H244	H	0.231162	0.618255	0.062635	0.000000
C337	C	0.052400	0.742833	0.155163	0.000000
C338	C	0.088470	0.762833	0.147943	0.000000
C339	C	0.118033	0.707533	0.150550	0.000000
C340	C	0.092833	0.836033	0.138960	0.000000
H245	H	0.072867	0.872967	0.136867	0.000000
C341	C	0.152400	0.725633	0.145037	0.000000
H246	H	0.172300	0.688533	0.146967	0.000000
C342	C	0.126867	0.854333	0.133097	0.000000
H247	H	0.129700	0.902933	0.126833	0.000000
C343	C	0.156583	0.799500	0.136647	0.000000
C344	C	0.199407	0.801700	0.105900	0.000000
C345	C	0.214600	0.729867	0.100950	0.000000
H248	H	0.224900	0.692967	0.110767	0.000000
C346	C	0.183633	0.857000	0.091523	0.000000
H249	H	0.172900	0.904367	0.095100	0.000000
C347	C	0.214133	0.714033	0.080950	0.000000
C348	C	0.184033	0.840733	0.071633	0.000000
H250	H	0.173933	0.877867	0.061833	0.000000
C349	C	0.199383	0.769567	0.066347	0.000000
C350	C	0.201993	0.753867	0.044800	0.000000
O145	O	0.045247	0.670533	0.157540	0.000000
O146	O	0.229500	0.774167	0.143313	0.000000
O147	O	0.205557	0.911567	0.133280	0.000000
O148	O	0.201620	0.813867	0.034037	0.000000
O149	O	0.205017	0.682567	0.039833	0.000000
S25	S	0.201450	0.826127	0.131200	0.000000
Ca25	Ca	0.298843	0.756947	0.152277	0.000000
O150	O	0.031077	0.800333	0.158070	0.000000
N51	N	0.051198	0.794896	0.007621	0.000000
H251	H	0.028222	0.756148	0.006034	0.000000
H252	H	0.074938	0.774266	0.002970	0.000000
N52	N	-0.063176	0.803719	0.089975	0.000000
H253	H	-0.073764	0.764768	0.078476	0.000000
H254	H	-0.064496	0.784921	0.104031	0.000000
C351	C	0.114267	0.909500	0.011503	0.000000
C352	C	0.078197	0.929500	0.018723	0.000000
C353	C	0.048633	0.874200	0.016117	0.000000
C354	C	0.073833	1.002700	0.027707	0.000000
H255	H	0.093800	1.039633	0.029800	0.000000
C355	C	0.014267	0.892300	0.021630	0.000000
H256	H	-0.005633	0.855200	0.019700	0.000000
C356	C	0.039800	1.021000	0.033570	0.000000
H257	H	0.036967	1.069600	0.039833	0.000000
C357	C	0.010083	0.966167	0.030020	0.000000
C358	C	-0.032740	0.968367	0.060767	0.000000
C359	C	-0.047933	0.896533	0.065717	0.000000
H258	H	-0.058233	0.859633	0.055900	0.000000
C360	C	-0.016967	1.023667	0.075143	0.000000
H259	H	-0.006233	1.071033	0.071567	0.000000
C361	C	-0.047467	0.880700	0.085717	0.000000
C362	C	-0.017367	1.007400	0.095033	0.000000
H260	H	-0.007267	1.044533	0.104833	0.000000
C363	C	-0.032717	0.936233	0.100320	0.000000
C364	C	-0.035327	0.920533	0.121867	0.000000
O151	O	0.121420	0.837200	0.009127	0.000000
O152	O	-0.062833	0.940833	0.023353	0.000000
O153	O	-0.038890	1.078233	0.033387	0.000000
O154	O	-0.034953	0.980533	0.132630	0.000000
O155	O	-0.038350	0.849233	0.126833	0.000000
S26	S	-0.034783	0.992793	0.035467	0.000000
Ca26	Ca	-0.132177	0.923613	0.014390	0.000000
O156	O	0.135590	0.967000	0.008597	0.000000
N53	N	-0.115468	0.705104	-0.159045	0.000000
H261	H	-0.138445	0.743852	-0.160632	0.000000
H262	H	-0.091729	0.725734	-0.163697	0.000000
N54	N	-0.229843	0.696281	-0.076692	0.000000
H263	H	-0.240431	0.735232	-0.088191	0.000000
H264	H	-0.231162	0.715079	-0.062635	0.000000
C365	C	-0.052400	0.590500	-0.155163	0.000000
C366	C	-0.088470	0.570500	-0.147943	0.000000
C367	C	-0.118033	0.625800	-0.150550	0.000000
C368	C	-0.092833	0.497300	-0.138960	0.000000
H265	H	-0.072867	0.460367	-0.136867	0.000000
C369	C	-0.152400	0.607700	-0.145037	0.000000
H266	H	-0.172300	0.644800	-0.146967	0.000000
C370	C	-0.126867	0.479000	-0.133097	0.000000
H267	H	-0.129700	0.430400	-0.126833	0.000000
C371	C	-0.156583	0.533833	-0.136647	0.000000
C372	C	-0.199407	0.531633	-0.105900	0.000000
C373	C	-0.214600	0.603467	-0.100950	0.000000
H268	H	-0.224900	0.640367	-0.110767	0.000000
C374	C	-0.183633	0.476333	-0.091523	0.000000
H269	H	-0.172900	0.428967	-0.095100	0.000000
C375	C	-0.214133	0.619300	-0.080950	0.000000
C376	C	-0.184033	0.492600	-0.071633	0.000000
H270	H	-0.173933	0.455467	-0.061833	0.000000
C377	C	-0.199383	0.563767	-0.066347	0.000000
C378	C	-0.201993	0.579467	-0.044800	0.000000
O157	O	-0.045247	0.662800	-0.157540	0.000000
O158	O	-0.229500	0.559167	-0.143313	0.000000
O159	O	-0.205557	0.421767	-0.133280	0.000000
O160	O	-0.201620	0.519467	-0.034037	0.000000
O161	O	-0.205017	0.650767	-0.039833	0.000000
S27	S	-0.201450	0.507207	-0.131200	0.000000
Ca27	Ca	-0.298843	0.576387	-0.152277	0.000000
O162	O	-0.031077	0.533000	-0.158070	0.000000
N55	N	-0.051198	0.538438	-0.007621	0.000000
H271	H	-0.028222	0.577185	-0.006034	0.000000
H272	H	-0.074938	0.559068	-0.002970	0.000000
N56	N	0.063176	0.529615	-0.089975	0.000000
H273	H	0.073764	0.568565	-0.078476	0.000000
H274	H	0.064496	0.548412	-0.104031	0.000000
C379	C	-0.114267	0.423833	-0.011503	0.000000
C380	C	-0.078197	0.403833	-0.018723	0.000000
C381	C	-0.048633	0.459133	-0.016117	0.000000
C382	C	-0.073833	0.330633	-0.027707	0.000000
H275	H	-0.093800	0.293700	-0.029800	0.000000
C383	C	-0.014267	0.441033	-0.021630	0.000000
H276	H	0.005633	0.478133	-0.019700	0.000000
C384	C	-0.039800	0.312333	-0.033570	0.000000
H277	H	-0.036967	0.263733	-0.039833	0.000000
C385	C	-0.010083	0.367167	-0.030020	0.000000
C386	C	0.032740	0.364967	-0.060767	0.000000
C387	C	0.047933	0.436800	-0.065717	0.000000
H278	H	0.058233	0.473700	-0.055900	0.000000
C388	C	0.016967	0.309667	-0.075143	0.000000
H279	H	0.006233	0.262300	-0.071567	0.000000
C389	C	0.047467	0.452633	-0.085717	0.000000
C390	C	0.017367	0.325933	-0.095033	0.000000
H280	H	0.007267	0.288800	-0.104833	0.000000
C391	C	0.032717	0.397100	-0.100320	0.000000
C392	C	0.035327	0.412800	-0.121867	0.000000
O163	O	-0.121420	0.496133	-0.009127	0.000000
O164	O	0.062833	0.392500	-0.023353	0.000000
O165	O	0.038890	0.255100	-0.033387	0.000000
O166	O	0.034953	0.352800	-0.132630	0.000000
O167	O	0.038350	0.484100	-0.126833	0.000000
S28	S	0.034783	0.340540	-0.035467	0.000000
Ca28	Ca	0.132177	0.409720	-0.014390	0.000000
O168	O	-0.135590	0.366333	-0.008597	0.000000
N57	N	0.115468	0.628229	0.492379	0.000000
H281	H	0.138445	0.589481	0.493966	0.000000
H282	H	0.091729	0.607599	0.497030	0.000000
N58	N	0.229843	0.637052	0.410025	0.000000
H283	H	0.240431	0.598101	0.421524	0.000000
H284	H	0.231162	0.618255	0.395969	0.000000
C393	C	0.052400	0.742833	0.488497	0.000000
C394	C	0.088470	0.762833	0.481277	0.000000
C395	C	0.118033	0.707533	0.483883	0.000000
C396	C	0.092833	0.836033	0.472293	0.000000
H285	H	0.072867	0.872967	0.470200	0.000000
C397	C	0.152400	0.725633	0.478370	0.000000
H286	H	0.172300	0.688533	0.480300	0.000000
C398	C	0.126867	0.854333	0.466430	0.000000
H287	H	0.129700	0.902933	0.460167	0.000000
C399	C	0.156583	0.799500	0.469980	0.000000
C400	C	0.199407	0.801700	0.439233	0.000000
C401	C	0.214600	0.729867	0.434283	0.000000
H288	H	0.224900	0.692967	0.444100	0.000000
C402	C	0.183633	0.857000	0.424857	0.000000
H289	H	0.172900	0.904367	0.428433	0.000000
C403	C	0.214133	0.714033	0.414283	0.000000
C404	C	0.184033	0.840733	0.404967	0.000000
H290	H	0.173933	0.877867	0.395167	0.000000
C405	C	0.199383	0.769567	0.399680	0.000000
C406	C	0.201993	0.753867	0.378133	0.000000
O169	O	0.045247	0.670533	0.490873	0.000000
O170	O	0.229500	0.774167	0.476647	0.000000
O171	O	0.205557	0.911567	0.466613	0.000000
O172	O	0.201620	0.813867	0.367370	0.000000
O173	O	0.205017	0.682567	0.373167	0.000000
S29	S	0.201450	0.826127	0.464533	0.000000
Ca29	Ca	0.298843	0.756947	0.485610	0.000000
O174	O	0.031077	0.800333	0.491403	0.000000
N59	N	0.051198	0.794896	0.340955	0.000000
H291	H	0.028222	0.756148	0.339368	0.000000
H292	H	0.074938	0.774266	0.336303	0.000000
N60	N	-0.063176	0.803719	0.423308	0.000000
H293	H	-0.073764	0.764768	0.411809	0.000000
H294	H	-0.064496	0.784921	0.437365	0.000000
C407	C	0.114267	0.909500	0.344837	0.000000
C408	C	0.078197	0.929500	0.352057	0.000000
C409	C	0.048633	0.874200	0.349450	0.000000
C410	C	0.073833	1.002700	0.361040	0.000000
H295	H	0.093800	1.039633	0.363133	0.000000
C411	C	0.014267	0.892300	0.354963	0.000000
H296	H	-0.005633	0.855200	0.353033	0.000000
C412	C	0.039800	1.021000	0.366903	0.000000
H297	H	0.036967	1.069600	0.373167	0.000000
C413	C	0.010083	0.966167	0.363353	0.000000
C414	C	-0.032740	0.968367	0.394100	0.000000
C415	C	-0.047933	0.896533	0.399050	0.000000
H298	H	-0.058233	0.859633	0.389233	0.000000
C416	C	-0.016967	1.023667	0.408477	0.000000
H299	H	-0.006233	1.071033	0.404900	0.000000
C417	C	-0.047467	0.880700	0.419050	0.000000
C418	C	-0.017367	1.007400	0.428367	0.000000
H300	H	-0.007267	1.044533	0.438167	0.000000
C419	C	-0.032717	0.936233	0.433653	0.000000
C420	C	-0.035327	0.920533	0.455200	0.000000
O175	O	0.121420	0.837200	0.342460	0.000000
O176	O	-0.062833	0.940833	0.356687	0.000000
O177	O	-0.038890	1.078233	0.366720	0.000000
O178	O	-0.034953	0.980533	0.465963	0.000000
O179	O	-0.038350	0.849233	0.460167	0.000000
S30	S	-0.034783	0.992793	0.368800	0.000000
Ca30	Ca	-0.132177	0.923613	0.347723	0.000000
O180	O	0.135590	0.967000	0.341930	0.000000
N61	N	-0.115468	0.705104	0.174288	0.000000
H301	H	-0.138445	0.743852	0.172701	0.000000
H302	H	-0.091729	0.725734	0.169636	0.000000
N62	N	-0.229843	0.696281	0.256642	0.000000
H303	H	-0.240431	0.735232	0.245143	0.000000
H304	H	-0.231162	0.715079	0.270698	0.000000
C421	C	-0.052400	0.590500	0.178170	0.000000
C422	C	-0.088470	0.570500	0.185390	0.000000
C423	C	-0.118033	0.625800	0.182783	0.000000
C424	C	-0.092833	0.497300	0.194373	0.000000
H305	H	-0.072867	0.460367	0.196467	0.000000
C425	C	-0.152400	0.607700	0.188297	0.000000
H306	H	-0.172300	0.644800	0.186367	0.000000
C426	C	-0.126867	0.479000	0.200237	0.000000
H307	H	-0.129700	0.430400	0.206500	0.000000
C427	C	-0.156583	0.533833	0.196687	0.000000
C428	C	-0.199407	0.531633	0.227433	0.000000
C429	C	-0.214600	0.603467	0.232383	0.000000
H308	H	-0.224900	0.640367	0.222567	0.000000
C430	C	-0.183633	0.476333	0.241810	0.000000
H309	H	-0.172900	0.428967	0.238233	0.000000
C431	C	-0.214133	0.619300	0.252383	0.000000
C432	C	-0.184033	0.492600	0.261700	0.000000
H310	H	-0.173933	0.455467	0.271500	0.000000
C433	C	-0.199383	0.563767	0.266987	0.000000
C434	C	-0.201993	0.579467	0.288533	0.000000
O181	O	-0.045247	0.662800	0.175793	0.000000
O182	O	-0.229500	0.559167	0.190020	0.000000
O183	O	-0.205557	0.421767	0.200053	0.000000
O184	O	-0.201620	0.519467	0.299297	0.000000
O185	O	-0.205017	0.650767	0.293500	0.000000
S31	S	-0.201450	0.507207	0.202133	0.000000
Ca31	Ca	-0.298843	0.576387	0.181057	0.000000
O186	O	-0.031077	0.533000	0.175263	0.000000
N63	N	-0.051198	0.538438	0.325712	0.000000
H311	H	-0.028222	0.577185	0.327299	0.000000
H312	H	-0.074938	0.559068	0.330364	0.000000
N64	N	0.063176	0.529615	0.243358	0.000000
H313	H	0.073764	0.568565	0.254857	0.000000
H314	H	0.064496	0.548412	0.229302	0.000000
C435	C	-0.114267	0.423833	0.321830	0.000000
C436	C	-0.078197	0.403833	0.314610	0.000000
C437	C	-0.048633	0.459133	0.317217	0.000000
C438	C	-0.073833	0.330633	0.305627	0.000000
H315	H	-0.093800	0.293700	0.303533	0.000000
C439	C	-0.014267	0.441033	0.311703	0.000000
H316	H	0.005633	0.478133	0.313633	0.000000
C440	C	-0.039800	0.312333	0.299763	0.000000
H317	H	-0.036967	0.263733	0.293500	0.000000
C441	C	-0.010083	0.367167	0.303313	0.000000
C442	C	0.032740	0.364967	0.272567	0.000000
C443	C	0.047933	0.436800	0.267617	0.000000
H318	H	0.058233	0.473700	0.277433	0.000000
C444	C	0.016967	0.309667	0.258190	0.000000
H319	H	0.006233	0.262300	0.261767	0.000000
C445	C	0.047467	0.452633	0.247617	0.000000
C446	C	0.017367	0.325933	0.238300	0.000000
H320	H	0.007267	0.288800	0.228500	0.000000
C447	C	0.032717	0.397100	0.233013	0.000000
C448	C	0.035327	0.412800	0.211467	0.000000
O187	O	-0.121420	0.496133	0.324207	0.000000
O188	O	0.062833	0.392500	0.309980	0.000000
O189	O	0.038890	0.255100	0.299947	0.000000
O190	O	0.034953	0.352800	0.200703	0.000000
O191	O	0.038350	0.484100	0.206500	0.000000
S32	S	0.034783	0.340540	0.297867	0.000000
Ca32	Ca	0.132177	0.409720	0.318943	0.000000
O192	O	-0.135590	0.366333	0.324737	0.000000
N65	N	0.115468	0.628229	0.825712	0.000000
H321	H	0.138445	0.589481	0.827299	0.000000
H322	H	0.091729	0.607599	0.830364	0.000000
N66	N	0.229843	0.637052	0.743358	0.000000
H323	H	0.240431	0.598101	0.754857	0.000000
H324	H	0.231162	0.618255	0.729302	0.000000
C449	C	0.052400	0.742833	0.821830	0.000000
C450	C	0.088470	0.762833	0.814610	0.000000
C451	C	0.118033	0.707533	0.817217	0.000000
C452	C	0.092833	0.836033	0.805627	0.000000
H325	H	0.072867	0.872967	0.803533	0.000000
C453	C	0.152400	0.725633	0.811703	0.000000
H326	H	0.172300	0.688533	0.813633	0.000000
C454	C	0.126867	0.854333	0.799763	0.000000
H327	H	0.129700	0.902933	0.793500	0.000000
C455	C	0.156583	0.799500	0.803313	0.000000
C456	C	0.199407	0.801700	0.772567	0.000000
C457	C	0.214600	0.729867	0.767617	0.000000
H328	H	0.224900	0.692967	0.777433	0.000000
C458	C	0.183633	0.857000	0.758190	0.000000
H329	H	0.172900	0.904367	0.761767	0.000000
C459	C	0.214133	0.714033	0.747617	0.000000
C460	C	0.184033	0.840733	0.738300	0.000000
H330	H	0.173933	0.877867	0.728500	0.000000
C461	C	0.199383	0.769567	0.733013	0.000000
C462	C	0.201993	0.753867	0.711467	0.000000
O193	O	0.045247	0.670533	0.824207	0.000000
O194	O	0.229500	0.774167	0.809980	0.000000
O195	O	0.205557	0.911567	0.799947	0.000000
O196	O	0.201620	0.813867	0.700703	0.000000
O197	O	0.205017	0.682567	0.706500	0.000000
S33	S	0.201450	0.826127	0.797867	0.000000
Ca33	Ca	0.298843	0.756947	0.818943	0.000000
O198	O	0.031077	0.800333	0.824737	0.000000
N67	N	0.051198	0.794896	0.674288	0.000000
H331	H	0.028222	0.756148	0.672701	0.000000
H332	H	0.074938	0.774266	0.669636	0.000000
N68	N	-0.063176	0.803719	0.756642	0.000000
H333	H	-0.073764	0.764768	0.745143	0.000000
H334	H	-0.064496	0.784921	0.770698	0.000000
C463	C	0.114267	0.909500	0.678170	0.000000
C464	C	0.078197	0.929500	0.685390	0.000000
C465	C	0.048633	0.874200	0.682783	0.000000
C466	C	0.073833	1.002700	0.694373	0.000000
H335	H	0.093800	1.039633	0.696467	0.000000
C467	C	0.014267	0.892300	0.688297	0.000000
H336	H	-0.005633	0.855200	0.686367	0.000000
C468	C	0.039800	1.021000	0.700237	0.000000
H337	H	0.036967	1.069600	0.706500	0.000000
C469	C	0.010083	0.966167	0.696687	0.000000
C470	C	-0.032740	0.968367	0.727433	0.000000
C471	C	-0.047933	0.896533	0.732383	0.000000
H338	H	-0.058233	0.859633	0.722567	0.000000
C472	C	-0.016967	1.023667	0.741810	0.000000
H339	H	-0.006233	1.071033	0.738233	0.000000
C473	C	-0.047467	0.880700	0.752383	0.000000
C474	C	-0.017367	1.007400	0.761700	0.000000
H340	H	-0.007267	1.044533	0.771500	0.000000
C475	C	-0.032717	0.936233	0.766987	0.000000
C476	C	-0.035327	0.920533	0.788533	0.000000
O199	O	0.121420	0.837200	0.675793	0.000000
O200	O	-0.062833	0.940833	0.690020	0.000000
O201	O	-0.038890	1.078233	0.700053	0.000000
O202	O	-0.034953	0.980533	0.799297	0.000000
O203	O	-0.038350	0.849233	0.793500	0.000000
S34	S	-0.034783	0.992793	0.702133	0.000000
Ca34	Ca	-0.132177	0.923613	0.681057	0.000000
O204	O	0.135590	0.967000	0.675263	0.000000
N69	N	-0.115468	0.705104	0.507621	0.000000
H341	H	-0.138445	0.743852	0.506034	0.000000
H342	H	-0.091729	0.725734	0.502970	0.000000
N70	N	-0.229843	0.696281	0.589975	0.000000
H343	H	-0.240431	0.735232	0.578476	0.000000
H344	H	-0.231162	0.715079	0.604031	0.000000
C477	C	-0.052400	0.590500	0.511503	0.000000
C478	C	-0.088470	0.570500	0.518723	0.000000
C479	C	-0.118033	0.625800	0.516117	0.000000
C480	C	-0.092833	0.497300	0.527707	0.000000
H345	H	-0.072867	0.460367	0.529800	0.000000
C481	C	-0.152400	0.607700	0.521630	0.000000
H346	H	-0.172300	0.644800	0.519700	0.000000
C482	C	-0.126867	0.479000	0.533570	0.000000
H347	H	-0.129700	0.430400	0.539833	0.000000
C483	C	-0.156583	0.533833	0.530020	0.000000
C484	C	-0.199407	0.531633	0.560767	0.000000
C485	C	-0.214600	0.603467	0.565717	0.000000
H348	H	-0.224900	0.640367	0.555900	0.000000
C486	C	-0.183633	0.476333	0.575143	0.000000
H349	H	-0.172900	0.428967	0.571567	0.000000
C487	C	-0.214133	0.619300	0.585717	0.000000
C488	C	-0.184033	0.492600	0.595033	0.000000
H350	H	-0.173933	0.455467	0.604833	0.000000
C489	C	-0.199383	0.563767	0.600320	0.000000
C490	C	-0.201993	0.579467	0.621867	0.000000
O205	O	-0.045247	0.662800	0.509127	0.000000
O206	O	-0.229500	0.559167	0.523353	0.000000
O207	O	-0.205557	0.421767	0.533387	0.000000
O208	O	-0.201620	0.519467	0.632630	0.000000
O209	O	-0.205017	0.650767	0.626833	0.000000
S35	S	-0.201450	0.507207	0.535467	0.000000
Ca35	Ca	-0.298843	0.576387	0.514390	0.000000
O210	O	-0.031077	0.533000	0.508597	0.000000
N71	N	-0.051198	0.538438	0.659045	0.000000
H351	H	-0.028222	0.577185	0.660632	0.000000
H352	H	-0.074938	0.559068	0.663697	0.000000
N72	N	0.063176	0.529615	0.576692	0.000000
H353	H	0.073764	0.568565	0.588191	0.000000
H354	H	0.064496	0.548412	0.562635	0.000000
C491	C	-0.114267	0.423833	0.655163	0.000000
C492	C	-0.078197	0.403833	0.647943	0.000000
C493	C	-0.048633	0.459133	0.650550	0.000000
C494	C	-0.073833	0.330633	0.638960	0.000000
H355	H	-0.093800	0.293700	0.636867	0.000000
C495	C	-0.014267	0.441033	0.645037	0.000000
H356	H	0.005633	0.478133	0.646967	0.000000
C496	C	-0.039800	0.312333	0.633097	0.000000
H357	H	-0.036967	0.263733	0.626833	0.000000
C497	C	-0.010083	0.367167	0.636647	0.000000
C498	C	0.032740	0.364967	0.605900	0.000000
C499	C	0.047933	0.436800	0.600950	0.000000
H358	H	0.058233	0.473700	0.610767	0.000000
C500	C	0.016967	0.309667	0.591523	0.000000
H359	H	0.006233	0.262300	0.595100	0.000000
C501	C	0.047467	0.452633	0.580950	0.000000
C502	C	0.017367	0.325933	0.571633	0.000000
H360	H	0.007267	0.288800	0.561833	0.000000
C503	C	0.032717	0.397100	0.566347	0.000000
C504	C	0.035327	0.412800	0.544800	0.000000
O211	O	-0.121420	0.496133	0.657540	0.000000
O212	O	0.062833	0.392500	0.643313	0.000000
O213	O	0.038890	0.255100	0.633280	0.000000
O214	O	0.034953	0.352800	0.534037	0.000000
O215	O	0.038350	0.484100	0.539833	0.000000
S36	S	0.034783	0.340540	0.631200	0.000000
Ca36	Ca	0.132177	0.409720	0.652277	0.000000
O216	O	-0.135590	0.366333	0.658070	0.000000
N73	N	0.448802	-0.038438	0.159045	0.000000
H361	H	0.471778	-0.077185	0.160632	0.000000
H362	H	0.425062	-0.059068	0.163697	0.000000
N74	N	0.563176	-0.029615	0.076692	0.000000
H363	H	0.573764	-0.068565	0.088191	0.000000
H364	H	0.564496	-0.048412	0.062635	0.000000
C505	C	0.385733	0.076167	0.155163	0.000000
C506	C	0.421803	0.096167	0.147943	0.000000
C507	C	0.451367	0.040867	0.150550	0.000000
C508	C	0.426167	0.169367	0.138960	0.000000
H365	H	0.406200	0.206300	0.136867	0.000000
C509	C	0.485733	0.058967	0.145037	0.000000
H366	H	0.505633	0.021867	0.146967	0.000000
C510	C	0.460200	0.187667	0.133097	0.000000
H367	H	0.463033	0.236267	0.126833	0.000000
C511	C	0.489917	0.132833	0.136647	0.000000
C512	C	0.532740	0.135033	0.105900	0.000000
C513	C	0.547933	0.063200	0.100950	0.000000
H368	H	0.558233	0.026300	0.110767	0.000000
C514	C	0.516967	0.190333	0.091523	0.000000
H369	H	0.506233	0.237700	0.095100	0.000000
C515	C	0.547467	0.047367	0.080950	0.000000
C516	C	0.517367	0.174067	0.071633	0.000000
H370	H	0.507267	0.211200	0.061833	0.000000
C517	C	0.532717	0.102900	0.066347	0.000000
C518	C	0.535327	0.087200	0.044800	0.000000
O217	O	0.378580	0.003867	0.157540	0.000000
O218	O	0.562833	0.107500	0.143313	0.000000
O219	O	0.538890	0.244900	0.133280	0.000000
O220	O	0.534953	0.147200	0.034037	0.000000
O221	O	0.538350	0.015900	0.039833	0.000000
S37	S	0.534783	0.159460	0.131200	0.000000
Ca37	Ca	0.632177	0.090280	0.152277	0.000000
O222	O	0.364410	0.133667	0.158070	0.000000
N75	N	0.384532	0.128229	0.007621	0.000000
H371	H	0.361555	0.089481	0.006034	0.000000
H372	H	0.408271	0.107599	0.002970	0.000000
N76	N	0.270157	0.137052	0.089975	0.000000
H373	H	0.259569	0.098101	0.078476	0.000000
H374	H	0.268838	0.118255	0.104031	0.000000
C519	C	0.447600	0.242833	0.011503	0.000000
C520	C	0.411530	0.262833	0.018723	0.000000
C521	C	0.381967	0.207533	0.016117	0.000000
C522	C	0.407167	0.336033	0.027707	0.000000
H375	H	0.427133	0.372967	0.029800	0.000000
C523	C	0.347600	0.225633	0.021630	0.000000
H376	H	0.327700	0.188533	0.019700	0.000000
C524	C	0.373133	0.354333	0.033570	0.000000
H377	H	0.370300	0.402933	0.039833	0.000000
C525	C	0.343417	0.299500	0.030020	0.000000
C526	C	0.300593	0.301700	0.060767	0.000000
C527	C	0.285400	0.229867	0.065717	0.000000
H378	H	0.275100	0.192967	0.055900	0.000000
C528	C	0.316367	0.357000	0.075143	0.000000
H379	H	0.327100	0.404367	0.071567	0.000000
C529	C	0.285867	0.214033	0.085717	0.000000
C530	C	0.315967	0.340733	0.095033	0.000000
H380	H	0.326067	0.377867	0.104833	0.000000
C531	C	0.300617	0.269567	0.100320	0.000000
C532	C	0.298007	0.253867	0.121867	0.000000
O223	O	0.454753	0.170533	0.009127	0.000000
O224	O	0.270500	0.274167	0.023353	0.000000
O225	O	0.294443	0.411567	0.033387	0.000000
O226	O	0.298380	0.313867	0.132630	0.000000
O227	O	0.294983	0.182567	0.126833	0.000000
S38	S	0.298550	0.326127	0.035467	0.000000
Ca38	Ca	0.201157	0.256947	0.014390	0.000000
O228	O	0.468923	0.300333	0.008597	0.000000
N77	N	0.217865	0.038438	-0.159045	0.000000
H381	H	0.194889	0.077185	-0.160632	0.000000
H382	H	0.241605	0.059068	-0.163697	0.000000
N78	N	0.103491	0.029615	-0.076692	0.000000
H383	H	0.092903	0.068565	-0.088191	0.000000
H384	H	0.102171	0.048412	-0.062635	0.000000
C533	C	0.280933	-0.076167	-0.155163	0.000000
C534	C	0.244863	-0.096167	-0.147943	0.000000
C535	C	0.215300	-0.040867	-0.150550	0.000000
C536	C	0.240500	-0.169367	-0.138960	0.000000
H385	H	0.260467	-0.206300	-0.136867	0.000000
C537	C	0.180933	-0.058967	-0.145037	0.000000
H386	H	0.161033	-0.021867	-0.146967	0.000000
C538	C	0.206467	-0.187667	-0.133097	0.000000
H387	H	0.203633	-0.236267	-0.126833	0.000000
C539	C	0.176750	-0.132833	-0.136647	0.000000
C540	C	0.133927	-0.135033	-0.105900	0.000000
C541	C	0.118733	-0.063200	-0.100950	0.000000
H388	H	0.108433	-0.026300	-0.110767	0.000000
C542	C	0.149700	-0.190333	-0.091523	0.000000
H389	H	0.160433	-0.237700	-0.095100	0.000000
C543	C	0.119200	-0.047367	-0.080950	0.000000
C544	C	0.149300	-0.174067	-0.071633	0.000000
H390	H	0.159400	-0.211200	-0.061833	0.000000
C545	C	0.133950	-0.102900	-0.066347	0.000000
C546	C	0.131340	-0.087200	-0.044800	0.000000
O229	O	0.288087	-0.003867	-0.157540	0.000000
O230	O	0.103833	-0.107500	-0.143313	0.000000
O231	O	0.127777	-0.244900	-0.133280	0.000000
O232	O	0.131713	-0.147200	-0.034037	0.000000
O233	O	0.128317	-0.015900	-0.039833	0.000000
S39	S	0.131883	-0.159460	-0.131200	0.000000
Ca39	Ca	0.034490	-0.090280	-0.152277	0.000000
O234	O	0.302257	-0.133667	-0.158070	0.000000
N79	N	0.282135	-0.128229	-0.007621	0.000000
H391	H	0.305111	-0.089481	-0.006034	0.000000
H392	H	0.258395	-0.107599	-0.002970	0.000000
N80	N	0.396509	-0.137052	-0.089975	0.000000
H393	H	0.407097	-0.098101	-0.078476	0.000000
H394	H	0.397829	-0.118255	-0.104031	0.000000
C547	C	0.219067	-0.242833	-0.011503	0.000000
C548	C	0.255137	-0.262833	-0.018723	0.000000
C549	C	0.284700	-0.207533	-0.016117	0.000000
C550	C	0.259500	-0.336033	-0.027707	0.000000
H395	H	0.239533	-0.372967	-0.029800	0.000000
C551	C	0.319067	-0.225633	-0.021630	0.000000
H396	H	0.338967	-0.188533	-0.019700	0.000000
C552	C	0.293533	-0.354333	-0.033570	0.000000
H397	H	0.296367	-0.402933	-0.039833	0.000000
C553	C	0.323250	-0.299500	-0.030020	0.000000
C554	C	0.366073	-0.301700	-0.060767	0.000000
C555	C	0.381267	-0.229867	-0.065717	0.000000
H398	H	0.391567	-0.192967	-0.055900	0.000000
C556	C	0.350300	-0.357000	-0.075143	0.000000
H399	H	0.339567	-0.404367	-0.071567	0.000000
C557	C	0.380800	-0.214033	-0.085717	0.000000
C558	C	0.350700	-0.340733	-0.095033	0.000000
H400	H	0.340600	-0.377867	-0.104833	0.000000
C559	C	0.366050	-0.269567	-0.100320	0.000000
C560	C	0.368660	-0.253867	-0.121867	0.000000
O235	O	0.211913	-0.170533	-0.009127	0.000000
O236	O	0.396167	-0.274167	-0.023353	0.000000
O237	O	0.372223	-0.411567	-0.033387	0.000000
O238	O	0.368287	-0.313867	-0.132630	0.000000
O239	O	0.371683	-0.182567	-0.126833	0.000000
S40	S	0.368117	-0.326127	-0.035467	0.000000
Ca40	Ca	0.465510	-0.256947	-0.014390	0.000000
O240	O	0.197743	-0.300333	-0.008597	0.000000
N81	N	0.448802	-0.038438	0.492379	0.000000
H401	H	0.471778	-0.077185	0.493966	0.000000
H402	H	0.425062	-0.059068	0.497030	0.000000
N82	N	0.563176	-0.029615	0.410025	0.000000
H403	H	0.573764	-0.068565	0.421524	0.000000
H404	H	0.564496	-0.048412	0.395969	0.000000
C561	C	0.385733	0.076167	0.488497	0.000000
C562	C	0.421803	0.096167	0.481277	0.000000
C563	C	0.451367	0.040867	0.483883	0.000000
C564	C	0.426167	0.169367	0.472293	0.000000
H405	H	0.406200	0.206300	0.470200	0.000000
C565	C	0.485733	0.058967	0.478370	0.000000
H406	H	0.505633	0.021867	0.480300	0.000000
C566	C	0.460200	0.187667	0.466430	0.000000
H407	H	0.463033	0.236267	0.460167	0.000000
C567	C	0.489917	0.132833	0.469980	0.000000
C568	C	0.532740	0.135033	0.439233	0.000000
C569	C	0.547933	0.063200	0.434283	0.000000
H408	H	0.558233	0.026300	0.444100	0.000000
C570	C	0.516967	0.190333	0.424857	0.000000
H409	H	0.506233	0.237700	0.428433	0.000000
C571	C	0.547467	0.047367	0.414283	0.000000
C572	C	0.517367	0.174067	0.404967	0.000000
H410	H	0.507267	0.211200	0.395167	0.000000
C573	C	0.532717	0.102900	0.399680	0.000000
C574	C	0.535327	0.087200	0.378133	0.000000
O241	O	0.378580	0.003867	0.490873	0.000000
O242	O	0.562833	0.107500	0.476647	0.000000
O243	O	0.538890	0.244900	0.466613	0.000000
O244	O	0.534953	0.147200	0.367370	0.000000
O245	O	0.538350	0.015900	0.373167	0.000000
S41	S	0.534783	0.159460	0.464533	0.000000
Ca41	Ca	0.632177	0.090280	0.485610	0.000000
O246	O	0.364410	0.133667	0.491403	0.000000
N83	N	0.384532	0.128229	0.340955	0.000000
H411	H	0.361555	0.089481	0.339368	0.000000
H412	H	0.408271	0.107599	0.336303	0.000000
N84	N	0.270157	0.137052	0.423308	0.000000
H413	H	0.259569	0.098101	0.411809	0.000000
H414	H	0.268838	0.118255	0.437365	0.000000
C575	C	0.447600	0.242833	0.344837	0.000000
C576	C	0.411530	0.262833	0.352057	0.000000
C577	C	0.381967	0.207533	0.349450	0.000000
C578	C	0.407167	0.336033	0.361040	0.000000
H415	H	0.427133	0.372967	0.363133	0.000000
C579	C	0.347600	0.225633	0.354963	0.000000
H416	H	0.327700	0.188533	0.353033	0.000000
C580	C	0.373133	0.354333	0.366903	0.000000
H417	H	0.370300	0.402933	0.373167	0.000000
C581	C	0.343417	0.299500	0.363353	0.000000
C582	C	0.300593	0.301700	0.394100	0.000000
C583	C	0.285400	0.229867	0.399050	0.000000
H418	H	0.275100	0.192967	0.389233	0.000000
C584	C	0.316367	0.357000	0.408477	0.000000
H419	H	0.327100	0.404367	0.404900	0.000000
C585	C	0.285867	0.214033	0.419050	0.000000
C586	C	0.315967	0.340733	0.428367	0.000000
H420	H	0.326067	0.377867	0.438167	0.000000
C587	C	0.300617	0.269567	0.433653	0.000000
C588	C	0.298007	0.253867	0.455200	0.000000
O247	O	0.454753	0.170533	0.342460	0.000000
O248	O	0.270500	0.274167	0.356687	0.000000
O249	O	0.294443	0.411567	0.366720	0.000000
O250	O	0.298380	0.313867	0.465963	0.000000
O251	O	0.294983	0.182567	0.460167	0.000000
S42	S	0.298550	0.326127	0.368800	0.000000
Ca42	Ca	0.201157	0.256947	0.347723	0.000000
O252	O	0.468923	0.300333	0.341930	0.000000
N85	N	0.217865	0.038438	0.174288	0.000000
H421	H	0.194889	0.077185	0.172701	0.000000
H422	H	0.241605	0.059068	0.169636	0.000000
N86	N	0.103491	0.029615	0.256642	0.000000
H423	H	0.092903	0.068565	0.245143	0.000000
H424	H	0.102171	0.048412	0.270698	0.000000
C589	C	0.280933	-0.076167	0.178170	0.000000
C590	C	0.244863	-0.096167	0.185390	0.000000
C591	C	0.215300	-0.040867	0.182783	0.000000
C592	C	0.240500	-0.169367	0.194373	0.000000
H425	H	0.260467	-0.206300	0.196467	0.000000
C593	C	0.180933	-0.058967	0.188297	0.000000
H426	H	0.161033	-0.021867	0.186367	0.000000
C594	C	0.206467	-0.187667	0.200237	0.000000
H427	H	0.203633	-0.236267	0.206500	0.000000
C595	C	0.176750	-0.132833	0.196687	0.000000
C596	C	0.133927	-0.135033	0.227433	0.000000
C597	C	0.118733	-0.063200	0.232383	0.000000
H428	H	0.108433	-0.026300	0.222567	0.000000
C598	C	0.149700	-0.190333	0.241810	0.000000
H429	H	0.160433	-0.237700	0.238233	0.000000
C599	C	0.119200	-0.047367	0.252383	0.000000
C600	C	0.149300	-0.174067	0.261700	0.000000
H430	H	0.159400	-0.211200	0.271500	0.000000
C601	C	0.133950	-0.102900	0.266987	0.000000
C602	C	0.131340	-0.087200	0.288533	0.000000
O253	O	0.288087	-0.003867	0.175793	0.000000
O254	O	0.103833	-0.107500	0.190020	0.000000
O255	O	0.127777	-0.244900	0.200053	0.000000
O256	O	0.131713	-0.147200	0.299297	0.000000
O257	O	0.128317	-0.015900	0.293500	0.000000
S43	S	0.131883	-0.159460	0.202133	0.000000
Ca43	Ca	0.034490	-0.090280	0.181057	0.000000
O258	O	0.302257	-0.133667	0.175263	0.000000
N87	N	0.282135	-0.128229	0.325712	0.000000
H431	H	0.305111	-0.089481	0.327299	0.000000
H432	H	0.258395	-0.107599	0.330364	0.000000
N88	N	0.396509	-0.137052	0.243358	0.000000
H433	H	0.407097	-0.098101	0.254857	0.000000
H434	H	0.397829	-0.118255	0.229302	0.000000
C603	C	0.219067	-0.242833	0.321830	0.000000
C604	C	0.255137	-0.262833	0.314610	0.000000
C605	C	0.284700	-0.207533	0.317217	0.000000
C606	C	0.259500	-0.336033	0.305627	0.000000
H435	H	0.239533	-0.372967	0.303533	0.000000
C607	C	0.319067	-0.225633	0.311703	0.000000
H436	H	0.338967	-0.188533	0.313633	0.000000
C608	C	0.293533	-0.354333	0.299763	0.000000
H437	H	0.296367	-0.402933	0.293500	0.000000
C609	C	0.323250	-0.299500	0.303313	0.000000
C610	C	0.366073	-0.301700	0.272567	0.000000
C611	C	0.381267	-0.229867	0.267617	0.000000
H438	H	0.391567	-0.192967	0.277433	0.000000
C612	C	0.350300	-0.357000	0.258190	0.000000
H439	H	0.339567	-0.404367	0.261767	0.000000
C613	C	0.380800	-0.214033	0.247617	0.000000
C614	C	0.350700	-0.340733	0.238300	0.000000
H440	H	0.340600	-0.377867	0.228500	0.000000
C615	C	0.366050	-0.269567	0.233013	0.000000
C616	C	0.368660	-0.253867	0.211467	0.000000
O259	O	0.211913	-0.170533	0.324207	0.000000
O260	O	0.396167	-0.274167	0.309980	0.000000
O261	O	0.372223	-0.411567	0.299947	0.000000
O262	O	0.368287	-0.313867	0.200703	0.000000
O263	O	0.371683	-0.182567	0.206500	0.000000
S44	S	0.368117	-0.326127	0.297867	0.000000
Ca44	Ca	0.465510	-0.256947	0.318943	0.000000
O264	O	0.197743	-0.300333	0.324737	0.000000
N89	N	0.448802	-0.038438	0.825712	0.000000
H441	H	0.471778	-0.077185	0.827299	0.000000
H442	H	0.425062	-0.059068	0.830364	0.000000
N90	N	0.563176	-0.029615	0.743358	0.000000
H443	H	0.573764	-0.068565	0.754857	0.000000
H444	H	0.564496	-0.048412	0.729302	0.000000
C617	C	0.385733	0.076167	0.821830	0.000000
C618	C	0.421803	0.096167	0.814610	0.000000
C619	C	0.451367	0.040867	0.817217	0.000000
C620	C	0.426167	0.169367	0.805627	0.000000
H445	H	0.406200	0.206300	0.803533	0.000000
C621	C	0.485733	0.058967	0.811703	0.000000
H446	H	0.505633	0.021867	0.813633	0.000000
C622	C	0.460200	0.187667	0.799763	0.000000
H447	H	0.463033	0.236267	0.793500	0.000000
C623	C	0.489917	0.132833	0.803313	0.000000
C624	C	0.532740	0.135033	0.772567	0.000000
C625	C	0.547933	0.063200	0.767617	0.000000
H448	H	0.558233	0.026300	0.777433	0.000000
C626	C	0.516967	0.190333	0.758190	0.000000
H449	H	0.506233	0.237700	0.761767	0.000000
C627	C	0.547467	0.047367	0.747617	0.000000
C628	C	0.517367	0.174067	0.738300	0.000000
H450	H	0.507267	0.211200	0.728500	0.000000
C629	C	0.532717	0.102900	0.733013	0.000000
C630	C	0.535327	0.087200	0.711467	0.000000
O265	O	0.378580	0.003867	0.824207	0.000000
O266	O	0.562833	0.107500	0.809980	0.000000
O267	O	0.538890	0.244900	0.799947	0.000000
O268	O	0.534953	0.147200	0.700703	0.000000
O269	O	0.538350	0.015900	0.706500	0.000000
S45	S	0.534783	0.159460	0.797867	0.000000
Ca45	Ca	0.632177	0.090280	0.818943	0.000000
O270	O	0.364410	0.133667	0.824737	0.000000
N91	N	0.384532	0.128229	0.674288	0.000000
H451	H	0.361555	0.089481	0.672701	0.000000
H452	H	0.408271	0.107599	0.669636	0.000000
N92	N	0.270157	0.137052	0.756642	0.000000
H453	H	0.259569	0.098101	0.745143	0.000000
H454	H	0.268838	0.118255	0.770698	0.000000
C631	C	0.447600	0.242833	0.678170	0.000000
C632	C	0.411530	0.262833	0.685390	0.000000
C633	C	0.381967	0.207533	0.682783	0.000000
C634	C	0.407167	0.336033	0.694373	0.000000
H455	H	0.427133	0.372967	0.696467	0.000000
C635	C	0.347600	0.225633	0.688297	0.000000
H456	H	0.327700	0.188533	0.686367	0.000000
C636	C	0.373133	0.354333	0.700237	0.000000
H457	H	0.370300	0.402933	0.706500	0.000000
C637	C	0.343417	0.299500	0.696687	0.000000
C638	C	0.300593	0.301700	0.727433	0.000000
C639	C	0.285400	0.229867	0.732383	0.000000
H458	H	0.275100	0.192967	0.722567	0.000000
C640	C	0.316367	0.357000	0.741810	0.000000
H459	H	0.327100	0.404367	0.738233	0.000000
C641	C	0.285867	0.214033	0.752383	0.000000
C642	C	0.315967	0.340733	0.761700	0.000000
H460	H	0.326067	0.377867	0.771500	0.000000
C643	C	0.300617	0.269567	0.766987	0.000000
C644	C	0.298007	0.253867	0.788533	0.000000
O271	O	0.454753	0.170533	0.675793	0.000000
O272	O	0.270500	0.274167	0.690020	0.000000
O273	O	0.294443	0.411567	0.700053	0.000000
O274	O	0.298380	0.313867	0.799297	0.000000
O275	O	0.294983	0.182567	0.793500	0.000000
S46	S	0.298550	0.326127	0.702133	0.000000
Ca46	Ca	0.201157	0.256947	0.681057	0.000000
O276	O	0.468923	0.300333	0.675263	0.000000
N93	N	0.217865	0.038438	0.507621	0.000000
H461	H	0.194889	0.077185	0.506034	0.000000
H462	H	0.241605	0.059068	0.502970	0.000000
N94	N	0.103491	0.029615	0.589975	0.000000
H463	H	0.092903	0.068565	0.578476	0.000000
H464	H	0.102171	0.048412	0.604031	0.000000
C645	C	0.280933	-0.076167	0.511503	0.000000
C646	C	0.244863	-0.096167	0.518723	0.000000
C647	C	0.215300	-0.040867	0.516117	0.000000
C648	C	0.240500	-0.169367	0.527707	0.000000
H465	H	0.260467	-0.206300	0.529800	0.000000
C649	C	0.180933	-0.058967	0.521630	0.000000
H466	H	0.161033	-0.021867	0.519700	0.000000
C650	C	0.206467	-0.187667	0.533570	0.000000
H467	H	0.203633	-0.236267	0.539833	0.000000
C651	C	0.176750	-0.132833	0.530020	0.000000
C652	C	0.133927	-0.135033	0.560767	0.000000
C653	C	0.118733	-0.063200	0.565717	0.000000
H468	H	0.108433	-0.026300	0.555900	0.000000
C654	C	0.149700	-0.190333	0.575143	0.000000
H469	H	0.160433	-0.237700	0.571567	0.000000
C655	C	0.119200	-0.047367	0.585717	0.000000
C656	C	0.149300	-0.174067	0.595033	0.000000
H470	H	0.159400	-0.211200	0.604833	0.000000
C657	C	0.133950	-0.102900	0.600320	0.000000
C658	C	0.131340	-0.087200	0.621867	0.000000
O277	O	0.288087	-0.003867	0.509127	0.000000
O278	O	0.103833	-0.107500	0.523353	0.000000
O279	O	0.127777	-0.244900	0.533387	0.000000
O280	O	0.131713	-0.147200	0.632630	0.000000
O281	O	0.128317	-0.015900	0.626833	0.000000
S47	S	0.131883	-0.159460	0.535467	0.000000
Ca47	Ca	0.034490	-0.090280	0.514390	0.000000
O282	O	0.302257	-0.133667	0.508597	0.000000
N95	N	0.282135	-0.128229	0.659045	0.000000
H471	H	0.305111	-0.089481	0.660632	0.000000
H472	H	0.258395	-0.107599	0.663697	0.000000
N96	N	0.396509	-0.137052	0.576692	0.000000
H473	H	0.407097	-0.098101	0.588191	0.000000
H474	H	0.397829	-0.118255	0.562635	0.000000
C659	C	0.219067	-0.242833	0.655163	0.000000
C660	C	0.255137	-0.262833	0.647943	0.000000
C661	C	0.284700	-0.207533	0.650550	0.000000
C662	C	0.259500	-0.336033	0.638960	0.000000
H475	H	0.239533	-0.372967	0.636867	0.000000
C663	C	0.319067	-0.225633	0.645037	0.000000
H476	H	0.338967	-0.188533	0.646967	0.000000
C664	C	0.293533	-0.354333	0.633097	0.000000
H477	H	0.296367	-0.402933	0.626833	0.000000
C665	C	0.323250	-0.299500	0.636647	0.000000
C666	C	0.366073	-0.301700	0.605900	0.000000
C667	C	0.381267	-0.229867	0.600950	0.000000
H478	H	0.391567	-0.192967	0.610767	0.000000
C668	C	0.350300	-0.357000	0.591523	0.000000
H479	H	0.339567	-0.404367	0.595100	0.000000
C669	C	0.380800	-0.214033	0.580950	0.000000
C670	C	0.350700	-0.340733	0.571633	0.000000
H480	H	0.340600	-0.377867	0.561833	0.000000
C671	C	0.366050	-0.269567	0.566347	0.000000
C672	C	0.368660	-0.253867	0.544800	0.000000
O283	O	0.211913	-0.170533	0.657540	0.000000
O284	O	0.396167	-0.274167	0.643313	0.000000
O285	O	0.372223	-0.411567	0.633280	0.000000
O286	O	0.368287	-0.313867	0.534037	0.000000
O287	O	0.371683	-0.182567	0.539833	0.000000
S48	S	0.368117	-0.326127	0.631200	0.000000
Ca48	Ca	0.465510	-0.256947	0.652277	0.000000
O288	O	0.197743	-0.300333	0.658070	0.000000
N97	N	0.448802	0.294896	0.159045	0.000000
H481	H	0.471778	0.256148	0.160632	0.000000
H482	H	0.425062	0.274266	0.163697	0.000000
N98	N	0.563176	0.303719	0.076692	0.000000
H483	H	0.573764	0.264768	0.088191	0.000000
H484	H	0.564496	0.284921	0.062635	0.000000
C673	C	0.385733	0.409500	0.155163	0.000000
C674	C	0.421803	0.429500	0.147943	0.000000
C675	C	0.451367	0.374200	0.150550	0.000000
C676	C	0.426167	0.502700	0.138960	0.000000
H485	H	0.406200	0.539633	0.136867	0.000000
C677	C	0.485733	0.392300	0.145037	0.000000
H486	H	0.505633	0.355200	0.146967	0.000000
C678	C	0.460200	0.521000	0.133097	0.000000
H487	H	0.463033	0.569600	0.126833	0.000000
C679	C	0.489917	0.466167	0.136647	0.000000
C680	C	0.532740	0.468367	0.105900	0.000000
C681	C	0.547933	0.396533	0.100950	0.000000
H488	H	0.558233	0.359633	0.110767	0.000000
C682	C	0.516967	0.523667	0.091523	0.000000
H489	H	0.506233	0.571033	0.095100	0.000000
C683	C	0.547467	0.380700	0.080950	0.000000
C684	C	0.517367	0.507400	0.071633	0.000000
H490	H	0.507267	0.544533	0.061833	0.000000
C685	C	0.532717	0.436233	0.066347	0.000000
C686	C	0.535327	0.420533	0.044800	0.000000
O289	O	0.378580	0.337200	0.157540	0.000000
O290	O	0.562833	0.440833	0.143313	0.000000
O291	O	0.538890	0.578233	0.133280	0.000000
O292	O	0.534953	0.480533	0.034037	0.000000
O293	O	0.538350	0.349233	0.039833	0.000000
S49	S	0.534783	0.492793	0.131200	0.000000
Ca49	Ca	0.632177	0.423613	0.152277	0.000000
O294	O	0.364410	0.467000	0.158070	0.000000
N99	N	0.384532	0.461562	0.007621	0.000000
H491	H	0.361555	0.422815	0.006034	0.000000
H492	H	0.408271	0.440932	0.002970	0.000000
N100	N	0.270157	0.470385	0.089975	0.000000
H493	H	0.259569	0.431435	0.078476	0.000000
H494	H	0.268838	0.451588	0.104031	0.000000
C687	C	0.447600	0.576167	0.011503	0.000000
C688	C	0.411530	0.596167	0.018723	0.000000
C689	C	0.381967	0.540867	0.016117	0.000000
C690	C	0.407167	0.669367	0.027707	0.000000
H495	H	0.427133	0.706300	0.029800	0.000000
C691	C	0.347600	0.558967	0.021630	0.000000
H496	H	0.327700	0.521867	0.019700	0.000000
C692	C	0.373133	0.687667	0.033570	0.000000
H497	H	0.370300	0.736267	0.039833	0.000000
C693	C	0.343417	0.632833	0.030020	0.000000
C694	C	0.300593	0.635033	0.060767	0.000000
C695	C	0.285400	0.563200	0.065717	0.000000
H498	H	0.275100	0.526300	0.055900	0.000000
C696	C	0.316367	0.690333	0.075143	0.000000
H499	H	0.327100	0.737700	0.071567	0.000000
C697	C	0.285867	0.547367	0.085717	0.000000
C698	C	0.315967	0.674067	0.095033	0.000000
H500	H	0.326067	0.711200	0.104833	0.000000
C699	C	0.300617	0.602900	0.100320	0.000000
C700	C	0.298007	0.587200	0.121867	0.000000
O295	O	0.454753	0.503867	0.009127	0.000000
O296	O	0.270500	0.607500	0.023353	0.000000
O297	O	0.294443	0.744900	0.033387	0.000000
O298	O	0.298380	0.647200	0.132630	0.000000
O299	O	0.294983	0.515900	0.126833	0.000000
S50	S	0.298550	0.659460	0.035467	0.000000
Ca50	Ca	0.201157	0.590280	0.014390	0.000000
O300	O	0.468923	0.633667	0.008597	0.000000
N101	N	0.217865	0.371771	-0.159045	0.000000
H501	H	0.194889	0.410519	-0.160632	0.000000
H502	H	0.241605	0.392401	-0.163697	0.000000
N102	N	0.103491	0.362948	-0.076692	0.000000
H503	H	0.092903	0.401899	-0.088191	0.000000
H504	H	0.102171	0.381745	-0.062635	0.000000
C701	C	0.280933	0.257167	-0.155163	0.000000
C702	C	0.244863	0.237167	-0.147943	0.000000
C703	C	0.215300	0.292467	-0.150550	0.000000
C704	C	0.240500	0.163967	-0.138960	0.000000
H505	H	0.260467	0.127033	-0.136867	0.000000
C705	C	0.180933	0.274367	-0.145037	0.000000
H506	H	0.161033	0.311467	-0.146967	0.000000
C706	C	0.206467	0.145667	-0.133097	0.000000
H507	H	0.203633	0.097067	-0.126833	0.000000
C707	C	0.176750	0.200500	-0.136647	0.000000
C708	C	0.133927	0.198300	-0.105900	0.000000
C709	C	0.118733	0.270133	-0.100950	0.000000
H508	H	0.108433	0.307033	-0.110767	0.000000
C710	C	0.149700	0.143000	-0.091523	0.000000
H509	H	0.160433	0.095633	-0.095100	0.000000
C711	C	0.119200	0.285967	-0.080950	0.000000
C712	C	0.149300	0.159267	-0.071633	0.000000
H510	H	0.159400	0.122133	-0.061833	0.000000
C713	C	0.133950	0.230433	-0.066347	0.000000
C714	C	0.131340	0.246133	-0.044800	0.000000
O301	O	0.288087	0.329467	-0.157540	0.000000
O302	O	0.103833	0.225833	-0.143313	0.000000
O303	O	0.127777	0.088433	-0.133280	0.000000
O304	O	0.131713	0.186133	-0.034037	0.000000
O305	O	0.128317	0.317433	-0.039833	0.000000
S51	S	0.131883	0.173873	-0.131200	0.000000
Ca51	Ca	0.034490	0.243053	-0.152277	0.000000
O306	O	0.302257	0.199667	-0.158070	0.000000
N103	N	0.282135	0.205104	-0.007621	0.000000
H511	H	0.305111	0.243852	-0.006034	0.000000
H512	H	0.258395	0.225734	-0.002970	0.000000
N104	N	0.396509	0.196281	-0.089975	0.000000
H513	H	0.407097	0.235232	-0.078476	0.000000
H514	H	0.397829	0.215079	-0.104031	0.000000
C715	C	0.219067	0.090500	-0.011503	0.000000
C716	C	0.255137	0.070500	-0.018723	0.000000
C717	C	0.284700	0.125800	-0.016117	0.000000
C718	C	0.259500	-0.002700	-0.027707	0.000000
H515	H	0.239533	-0.039633	-0.029800	0.000000
C719	C	0.319067	0.107700	-0.021630	0.000000
H516	H	0.338967	0.144800	-0.019700	0.000000
C720	C	0.293533	-0.021000	-0.033570	0.000000
H517	H	0.296367	-0.069600	-0.039833	0.000000
C721	C	0.323250	0.033833	-0.030020	0.000000
C722	C	0.366073	0.031633	-0.060767	0.000000
C723	C	0.381267	0.103467	-0.065717	0.000000
H518	H	0.391567	0.140367	-0.055900	0.000000
C724	C	0.350300	-0.023667	-0.075143	0.000000
H519	H	0.339567	-0.071033	-0.071567	0.000000
C725	C	0.380800	0.119300	-0.085717	0.000000
C726	C	0.350700	-0.007400	-0.095033	0.000000
H520	H	0.340600	-0.044533	-0.104833	0.000000
C727	C	0.366050	0.063767	-0.100320	0.000000
C728	C	0.368660	0.079467	-0.121867	0.000000
O307	O	0.211913	0.162800	-0.009127	0.000000
O308	O	0.396167	0.059167	-0.023353	0.000000
O309	O	0.372223	-0.078233	-0.033387	0.000000
O310	O	0.368287	0.019467	-0.132630	0.000000
O311	O	0.371683	0.150767	-0.126833	0.000000
S52	S	0.368117	0.007207	-0.035467	0.000000
Ca52	Ca	0.465510	0.076387	-0.014390	0.000000
O312	O	0.197743	0.033000	-0.008597	0.000000
N105	N	0.448802	0.294896	0.492379	0.000000
H521	H	0.471778	0.256148	0.493966	0.000000
H522	H	0.425062	0.274266	0.497030	0.000000
N106	N	0.563176	0.303719	0.410025	0.000000
H523	H	0.573764	0.264768	0.421524	0.000000
H524	H	0.564496	0.284921	0.395969	0.000000
C729	C	0.385733	0.409500	0.488497	0.000000
C730	C	0.421803	0.429500	0.481277	0.000000
C731	C	0.451367	0.374200	0.483883	0.000000
C732	C	0.426167	0.502700	0.472293	0.000000
H525	H	0.406200	0.539633	0.470200	0.000000
C733	C	0.485733	0.392300	0.478370	0.000000
H526	H	0.505633	0.355200	0.480300	0.000000
C734	C	0.460200	0.521000	0.466430	0.000000
H527	H	0.463033	0.569600	0.460167	0.000000
C735	C	0.489917	0.466167	0.469980	0.000000
C736	C	0.532740	0.468367	0.439233	0.000000
C737	C	0.547933	0.396533	0.434283	0.000000
H528	H	0.558233	0.359633	0.444100	0.000000
C738	C	0.516967	0.523667	0.424857	0.000000
H529	H	0.506233	0.571033	0.428433	0.000000
C739	C	0.547467	0.380700	0.414283	0.000000
C740	C	0.517367	0.507400	0.404967	0.000000
H530	H	0.507267	0.544533	0.395167	0.000000
C741	C	0.532717	0.436233	0.399680	0.000000
C742	C	0.535327	0.420533	0.378133	0.000000
O313	O	0.378580	0.337200	0.490873	0.000000
O314	O	0.562833	0.440833	0.476647	0.000000
O315	O	0.538890	0.578233	0.466613	0.000000
O316	O	0.534953	0.480533	0.367370	0.000000
O317	O	0.538350	0.349233	0.373167	0.000000
S53	S	0.534783	0.492793	0.464533	0.000000
Ca53	Ca	0.632177	0.423613	0.485610	0.000000
O318	O	0.364410	0.467000	0.491403	0.000000
N107	N	0.384532	0.461562	0.340955	0.000000
H531	H	0.361555	0.422815	0.339368	0.000000
H532	H	0.408271	0.440932	0.336303	0.000000
N108	N	0.270157	0.470385	0.423308	0.000000
H533	H	0.259569	0.431435	0.411809	0.000000
H534	H	0.268838	0.451588	0.437365	0.000000
C743	C	0.447600	0.576167	0.344837	0.000000
C744	C	0.411530	0.596167	0.352057	0.000000
C745	C	0.381967	0.540867	0.349450	0.000000
C746	C	0.407167	0.669367	0.361040	0.000000
H535	H	0.427133	0.706300	0.363133	0.000000
C747	C	0.347600	0.558967	0.354963	0.000000
H536	H	0.327700	0.521867	0.353033	0.000000
C748	C	0.373133	0.687667	0.366903	0.000000
H537	H	0.370300	0.736267	0.373167	0.000000
C749	C	0.343417	0.632833	0.363353	0.000000
C750	C	0.300593	0.635033	0.394100	0.000000
C751	C	0.285400	0.563200	0.399050	0.000000
H538	H	0.275100	0.526300	0.389233	0.000000
C752	C	0.316367	0.690333	0.408477	0.000000
H539	H	0.327100	0.737700	0.404900	0.000000
C753	C	0.285867	0.547367	0.419050	0.000000
C754	C	0.315967	0.674067	0.428367	0.000000
H540	H	0.326067	0.711200	0.438167	0.000000
C755	C	0.300617	0.602900	0.433653	0.000000
C756	C	0.298007	0.587200	0.455200	0.000000
O319	O	0.454753	0.503867	0.342460	0.000000
O320	O	0.270500	0.607500	0.356687	0.000000
O321	O	0.294443	0.744900	0.366720	0.000000
O322	O	0.298380	0.647200	0.465963	0.000000
O323	O	0.294983	0.515900	0.460167	0.000000
S54	S	0.298550	0.659460	0.368800	0.000000
Ca54	Ca	0.201157	0.590280	0.347723	0.000000
O324	O	0.468923	0.633667	0.341930	0.000000
N109	N	0.217865	0.371771	0.174288	0.000000
H541	H	0.194889	0.410519	0.172701	0.000000
H542	H	0.241605	0.392401	0.169636	0.000000
N110	N	0.103491	0.362948	0.256642	0.000000
H543	H	0.092903	0.401899	0.245143	0.000000
H544	H	0.102171	0.381745	0.270698	0.000000
C757	C	0.280933	0.257167	0.178170	0.000000
C758	C	0.244863	0.237167	0.185390	0.000000
C759	C	0.215300	0.292467	0.182783	0.000000
C760	C	0.240500	0.163967	0.194373	0.000000
H545	H	0.260467	0.127033	0.196467	0.000000
C761	C	0.180933	0.274367	0.188297	0.000000
H546	H	0.161033	0.311467	0.186367	0.000000
C762	C	0.206467	0.145667	0.200237	0.000000
H547	H	0.203633	0.097067	0.206500	0.000000
C763	C	0.176750	0.200500	0.196687	0.000000
C764	C	0.133927	0.198300	0.227433	0.000000
C765	C	0.118733	0.270133	0.232383	0.000000
H548	H	0.108433	0.307033	0.222567	0.000000
C766	C	0.149700	0.143000	0.241810	0.000000
H549	H	0.160433	0.095633	0.238233	0.000000
C767	C	0.119200	0.285967	0.252383	0.000000
C768	C	0.149300	0.159267	0.261700	0.000000
H550	H	0.159400	0.122133	0.271500	0.000000
C769	C	0.133950	0.230433	0.266987	0.000000
C770	C	0.131340	0.246133	0.288533	0.000000
O325	O	0.288087	0.329467	0.175793	0.000000
O326	O	0.103833	0.225833	0.190020	0.000000
O327	O	0.127777	0.088433	0.200053	0.000000
O328	O	0.131713	0.186133	0.299297	0.000000
O329	O	0.128317	0.317433	0.293500	0.000000
S55	S	0.131883	0.173873	0.202133	0.000000
Ca55	Ca	0.034490	0.243053	0.181057	0.000000
O330	O	0.302257	0.199667	0.175263	0.000000
N111	N	0.282135	0.205104	0.325712	0.000000
H551	H	0.305111	0.243852	0.327299	0.000000
H552	H	0.258395	0.225734	0.330364	0.000000
N112	N	0.396509	0.196281	0.243358	0.000000
H553	H	0.407097	0.235232	0.254857	0.000000
H554	H	0.397829	0.215079	0.229302	0.000000
C771	C	0.219067	0.090500	0.321830	0.000000
C772	C	0.255137	0.070500	0.314610	0.000000
C773	C	0.284700	0.125800	0.317217	0.000000
C774	C	0.259500	-0.002700	0.305627	0.000000
H555	H	0.239533	-0.039633	0.303533	0.000000
C775	C	0.319067	0.107700	0.311703	0.000000
H556	H	0.338967	0.144800	0.313633	0.000000
C776	C	0.293533	-0.021000	0.299763	0.000000
H557	H	0.296367	-0.069600	0.293500	0.000000
C777	C	0.323250	0.033833	0.303313	0.000000
C778	C	0.366073	0.031633	0.272567	0.000000
C779	C	0.381267	0.103467	0.267617	0.000000
H558	H	0.391567	0.140367	0.277433	0.000000
C780	C	0.350300	-0.023667	0.258190	0.000000
H559	H	0.339567	-0.071033	0.261767	0.000000
C781	C	0.380800	0.119300	0.247617	0.000000
C782	C	0.350700	-0.007400	0.238300	0.000000
H560	H	0.340600	-0.044533	0.228500	0.000000
C783	C	0.366050	0.063767	0.233013	0.000000
C784	C	0.368660	0.079467	0.211467	0.000000
O331	O	0.211913	0.162800	0.324207	0.000000
O332	O	0.396167	0.059167	0.309980	0.000000
O333	O	0.372223	-0.078233	0.299947	0.000000
O334	O	0.368287	0.019467	0.200703	0.000000
O335	O	0.371683	0.150767	0.206500	0.000000
S56	S	0.368117	0.007207	0.297867	0.000000
Ca56	Ca	0.465510	0.076387	0.318943	0.000000
O336	O	0.197743	0.033000	0.324737	0.000000
N113	N	0.448802	0.294896	0.825712	0.000000
H561	H	0.471778	0.256148	0.827299	0.000000
H562	H	0.425062	0.274266	0.830364	0.000000
N114	N	0.563176	0.303719	0.743358	0.000000
H563	H	0.573764	0.264768	0.754857	0.000000
H564	H	0.564496	0.284921	0.729302	0.000000
C785	C	0.385733	0.409500	0.821830	0.000000
C786	C	0.421803	0.429500	0.814610	0.000000
C787	C	0.451367	0.374200	0.817217	0.000000
C788	C	0.426167	0.502700	0.805627	0.000000
H565	H	0.406200	0.539633	0.803533	0.000000
C789	C	0.485733	0.392300	0.811703	0.000000
H566	H	0.505633	0.355200	0.813633	0.000000
C790	C	0.460200	0.521000	0.799763	0.000000
H567	H	0.463033	0.569600	0.793500	0.000000
C791	C	0.489917	0.466167	0.803313	0.000000
C792	C	0.532740	0.468367	0.772567	0.000000
C793	C	0.547933	0.396533	0.767617	0.000000
H568	H	0.558233	0.359633	0.777433	0.000000
C794	C	0.516967	0.523667	0.758190	0.000000
H569	H	0.506233	0.571033	0.761767	0.000000
C795	C	0.547467	0.380700	0.747617	0.000000
C796	C	0.517367	0.507400	0.738300	0.000000
H570	H	0.507267	0.544533	0.728500	0.000000
C797	C	0.532717	0.436233	0.733013	0.000000
C798	C	0.535327	0.420533	0.711467	0.000000
O337	O	0.378580	0.337200	0.824207	0.000000
O338	O	0.562833	0.440833	0.809980	0.000000
O339	O	0.538890	0.578233	0.799947	0.000000
O340	O	0.534953	0.480533	0.700703	0.000000
O341	O	0.538350	0.349233	0.706500	0.000000
S57	S	0.534783	0.492793	0.797867	0.000000
Ca57	Ca	0.632177	0.423613	0.818943	0.000000
O342	O	0.364410	0.467000	0.824737	0.000000
N115	N	0.384532	0.461562	0.674288	0.000000
H571	H	0.361555	0.422815	0.672701	0.000000
H572	H	0.408271	0.440932	0.669636	0.000000
N116	N	0.270157	0.470385	0.756642	0.000000
H573	H	0.259569	0.431435	0.745143	0.000000
H574	H	0.268838	0.451588	0.770698	0.000000
C799	C	0.447600	0.576167	0.678170	0.000000
C800	C	0.411530	0.596167	0.685390	0.000000
C801	C	0.381967	0.540867	0.682783	0.000000
C802	C	0.407167	0.669367	0.694373	0.000000
H575	H	0.427133	0.706300	0.696467	0.000000
C803	C	0.347600	0.558967	0.688297	0.000000
H576	H	0.327700	0.521867	0.686367	0.000000
C804	C	0.373133	0.687667	0.700237	0.000000
H577	H	0.370300	0.736267	0.706500	0.000000
C805	C	0.343417	0.632833	0.696687	0.000000
C806	C	0.300593	0.635033	0.727433	0.000000
C807	C	0.285400	0.563200	0.732383	0.000000
H578	H	0.275100	0.526300	0.722567	0.000000
C808	C	0.316367	0.690333	0.741810	0.000000
H579	H	0.327100	0.737700	0.738233	0.000000
C809	C	0.285867	0.547367	0.752383	0.000000
C810	C	0.315967	0.674067	0.761700	0.000000
H580	H	0.326067	0.711200	0.771500	0.000000
C811	C	0.300617	0.602900	0.766987	0.000000
C812	C	0.298007	0.587200	0.788533	0.000000
O343	O	0.454753	0.503867	0.675793	0.000000
O344	O	0.270500	0.607500	0.690020	0.000000
O345	O	0.294443	0.744900	0.700053	0.000000
O346	O	0.298380	0.647200	0.799297	0.000000
O347	O	0.294983	0.515900	0.793500	0.000000
S58	S	0.298550	0.659460	0.702133	0.000000
Ca58	Ca	0.201157	0.590280	0.681057	0.000000
O348	O	0.468923	0.633667	0.675263	0.000000
N117	N	0.217865	0.371771	0.507621	0.000000
H581	H	0.194889	0.410519	0.506034	0.000000
H582	H	0.241605	0.392401	0.502970	0.000000
N118	N	0.103491	0.362948	0.589975	0.000000
H583	H	0.092903	0.401899	0.578476	0.000000
H584	H	0.102171	0.381745	0.604031	0.000000
C813	C	0.280933	0.257167	0.511503	0.000000
C814	C	0.244863	0.237167	0.518723	0.000000
C815	C	0.215300	0.292467	0.516117	0.000000
C816	C	0.240500	0.163967	0.527707	0.000000
H585	H	0.260467	0.127033	0.529800	0.000000
C817	C	0.180933	0.274367	0.521630	0.000000
H586	H	0.161033	0.311467	0.519700	0.000000
C818	C	0.206467	0.145667	0.533570	0.000000
H587	H	0.203633	0.097067	0.539833	0.000000
C819	C	0.176750	0.200500	0.530020	0.000000
C820	C	0.133927	0.198300	0.560767	0.000000
C821	C	0.118733	0.270133	0.565717	0.000000
H588	H	0.108433	0.307033	0.555900	0.000000
C822	C	0.149700	0.143000	0.575143	0.000000
H589	H	0.160433	0.095633	0.571567	0.000000
C823	C	0.119200	0.285967	0.585717	0.000000
C824	C	0.149300	0.159267	0.595033	0.000000
H590	H	0.159400	0.122133	0.604833	0.000000
C825	C	0.133950	0.230433	0.600320	0.000000
C826	C	0.131340	0.246133	0.621867	0.000000
O349	O	0.288087	0.329467	0.509127	0.000000
O350	O	0.103833	0.225833	0.523353	0.000000
O351	O	0.127777	0.088433	0.533387	0.000000
O352	O	0.131713	0.186133	0.632630	0.000000
O353	O	0.128317	0.317433	0.626833	0.000000
S59	S	0.131883	0.173873	0.535467	0.000000
Ca59	Ca	0.034490	0.243053	0.514390	0.000000
O354	O	0.302257	0.199667	0.508597	0.000000
N119	N	0.282135	0.205104	0.659045	0.000000
H591	H	0.305111	0.243852	0.660632	0.000000
H592	H	0.258395	0.225734	0.663697	0.000000
N120	N	0.396509	0.196281	0.576692	0.000000
H593	H	0.407097	0.235232	0.588191	0.000000
H594	H	0.397829	0.215079	0.562635	0.000000
C827	C	0.219067	0.090500	0.655163	0.000000
C828	C	0.255137	0.070500	0.647943	0.000000
C829	C	0.284700	0.125800	0.650550	0.000000
C830	C	0.259500	-0.002700	0.638960	0.000000
H595	H	0.239533	-0.039633	0.636867	0.000000
C831	C	0.319067	0.107700	0.645037	0.000000
H596	H	0.338967	0.144800	0.646967	0.000000
C832	C	0.293533	-0.021000	0.633097	0.000000
H597	H	0.296367	-0.069600	0.626833	0.000000
C833	C	0.323250	0.033833	0.636647	0.000000
C834	C	0.366073	0.031633	0.605900	0.000000
C835	C	0.381267	0.103467	0.600950	0.000000
H598	H	0.391567	0.140367	0.610767	0.000000
C836	C	0.350300	-0.023667	0.591523	0.000000
H599	H	0.339567	-0.071033	0.595100	0.000000
C837	C	0.380800	0.119300	0.580950	0.000000
C838	C	0.350700	-0.007400	0.571633	0.000000
H600	H	0.340600	-0.044533	0.561833	0.000000
C839	C	0.366050	0.063767	0.566347	0.000000
C840	C	0.368660	0.079467	0.544800	0.000000
O355	O	0.211913	0.162800	0.657540	0.000000
O356	O	0.396167	0.059167	0.643313	0.000000
O357	O	0.372223	-0.078233	0.633280	0.000000
O358	O	0.368287	0.019467	0.534037	0.000000
O359	O	0.371683	0.150767	0.539833	0.000000
S60	S	0.368117	0.007207	0.631200	0.000000
Ca60	Ca	0.465510	0.076387	0.652277	0.000000
O360	O	0.197743	0.033000	0.658070	0.000000
N121	N	0.448802	0.628229	0.159045	0.000000
H601	H	0.471778	0.589481	0.160632	0.000000
H602	H	0.425062	0.607599	0.163697	0.000000
N122	N	0.563176	0.637052	0.076692	0.000000
H603	H	0.573764	0.598101	0.088191	0.000000
H604	H	0.564496	0.618255	0.062635	0.000000
C841	C	0.385733	0.742833	0.155163	0.000000
C842	C	0.421803	0.762833	0.147943	0.000000
C843	C	0.451367	0.707533	0.150550	0.000000
C844	C	0.426167	0.836033	0.138960	0.000000
H605	H	0.406200	0.872967	0.136867	0.000000
C845	C	0.485733	0.725633	0.145037	0.000000
H606	H	0.505633	0.688533	0.146967	0.000000
C846	C	0.460200	0.854333	0.133097	0.000000
H607	H	0.463033	0.902933	0.126833	0.000000
C847	C	0.489917	0.799500	0.136647	0.000000
C848	C	0.532740	0.801700	0.105900	0.000000
C849	C	0.547933	0.729867	0.100950	0.000000
H608	H	0.558233	0.692967	0.110767	0.000000
C850	C	0.516967	0.857000	0.091523	0.000000
H609	H	0.506233	0.904367	0.095100	0.000000
C851	C	0.547467	0.714033	0.080950	0.000000
C852	C	0.517367	0.840733	0.071633	0.000000
H610	H	0.507267	0.877867	0.061833	0.000000
C853	C	0.532717	0.769567	0.066347	0.000000
C854	C	0.535327	0.753867	0.044800	0.000000
O361	O	0.378580	0.670533	0.157540	0.000000
O362	O	0.562833	0.774167	0.143313	0.000000
O363	O	0.538890	0.911567	0.133280	0.000000
O364	O	0.534953	0.813867	0.034037	0.000000
O365	O	0.538350	0.682567	0.039833	0.000000
S61	S	0.534783	0.826127	0.131200	0.000000
Ca61	Ca	0.632177	0.756947	0.152277	0.000000
O366	O	0.364410	0.800333	0.158070	0.000000
N123	N	0.384532	0.794896	0.007621	0.000000
H611	H	0.361555	0.756148	0.006034	0.000000
H612	H	0.408271	0.774266	0.002970	0.000000
N124	N	0.270157	0.803719	0.089975	0.000000
H613	H	0.259569	0.764768	0.078476	0.000000
H614	H	0.268838	0.784921	0.104031	0.000000
C855	C	0.447600	0.909500	0.011503	0.000000
C856	C	0.411530	0.929500	0.018723	0.000000
C857	C	0.381967	0.874200	0.016117	0.000000
C858	C	0.407167	1.002700	0.027707	0.000000
H615	H	0.427133	1.039633	0.029800	0.000000
C859	C	0.347600	0.892300	0.021630	0.000000
H616	H	0.327700	0.855200	0.019700	0.000000
C860	C	0.373133	1.021000	0.033570	0.000000
H617	H	0.370300	1.069600	0.039833	0.000000
C861	C	0.343417	0.966167	0.030020	0.000000
C862	C	0.300593	0.968367	0.060767	0.000000
C863	C	0.285400	0.896533	0.065717	0.000000
H618	H	0.275100	0.859633	0.055900	0.000000
C864	C	0.316367	1.023667	0.075143	0.000000
H619	H	0.327100	1.071033	0.071567	0.000000
C865	C	0.285867	0.880700	0.085717	0.000000
C866	C	0.315967	1.007400	0.095033	0.000000
H620	H	0.326067	1.044533	0.104833	0.000000
C867	C	0.300617	0.936233	0.100320	0.000000
C868	C	0.298007	0.920533	0.121867	0.000000
O367	O	0.454753	0.837200	0.009127	0.000000
O368	O	0.270500	0.940833	0.023353	0.000000
O369	O	0.294443	1.078233	0.033387	0.000000
O370	O	0.298380	0.980533	0.132630	0.000000
O371	O	0.294983	0.849233	0.126833	0.000000
S62	S	0.298550	0.992793	0.035467	0.000000
Ca62	Ca	0.201157	0.923613	0.014390	0.000000
O372	O	0.468923	0.967000	0.008597	0.000000
N125	N	0.217865	0.705104	-0.159045	0.000000
H621	H	0.194889	0.743852	-0.160632	0.000000
H622	H	0.241605	0.725734	-0.163697	0.000000
N126	N	0.103491	0.696281	-0.076692	0.000000
H623	H	0.092903	0.735232	-0.088191	0.000000
H624	H	0.102171	0.715079	-0.062635	0.000000
C869	C	0.280933	0.590500	-0.155163	0.000000
C870	C	0.244863	0.570500	-0.147943	0.000000
C871	C	0.215300	0.625800	-0.150550	0.000000
C872	C	0.240500	0.497300	-0.138960	0.000000
H625	H	0.260467	0.460367	-0.136867	0.000000
C873	C	0.180933	0.607700	-0.145037	0.000000
H626	H	0.161033	0.644800	-0.146967	0.000000
C874	C	0.206467	0.479000	-0.133097	0.000000
H627	H	0.203633	0.430400	-0.126833	0.000000
C875	C	0.176750	0.533833	-0.136647	0.000000
C876	C	0.133927	0.531633	-0.105900	0.000000
C877	C	0.118733	0.603467	-0.100950	0.000000
H628	H	0.108433	0.640367	-0.110767	0.000000
C878	C	0.149700	0.476333	-0.091523	0.000000
H629	H	0.160433	0.428967	-0.095100	0.000000
C879	C	0.119200	0.619300	-0.080950	0.000000
C880	C	0.149300	0.492600	-0.071633	0.000000
H630	H	0.159400	0.455467	-0.061833	0.000000
C881	C	0.133950	0.563767	-0.066347	0.000000
C882	C	0.131340	0.579467	-0.044800	0.000000
O373	O	0.288087	0.662800	-0.157540	0.000000
O374	O	0.103833	0.559167	-0.143313	0.000000
O375	O	0.127777	0.421767	-0.133280	0.000000
O376	O	0.131713	0.519467	-0.034037	0.000000
O377	O	0.128317	0.650767	-0.039833	0.000000
S63	S	0.131883	0.507207	-0.131200	0.000000
Ca63	Ca	0.034490	0.576387	-0.152277	0.000000
O378	O	0.302257	0.533000	-0.158070	0.000000
N127	N	0.282135	0.538438	-0.007621	0.000000
H631	H	0.305111	0.577185	-0.006034	0.000000
H632	H	0.258395	0.559068	-0.002970	0.000000
N128	N	0.396509	0.529615	-0.089975	0.000000
H633	H	0.407097	0.568565	-0.078476	0.000000
H634	H	0.397829	0.548412	-0.104031	0.000000
C883	C	0.219067	0.423833	-0.011503	0.000000
C884	C	0.255137	0.403833	-0.018723	0.000000
C885	C	0.284700	0.459133	-0.016117	0.000000
C886	C	0.259500	0.330633	-0.027707	0.000000
H635	H	0.239533	0.293700	-0.029800	0.000000
C887	C	0.319067	0.441033	-0.021630	0.000000
H636	H	0.338967	0.478133	-0.019700	0.000000
C888	C	0.293533	0.312333	-0.033570	0.000000
H637	H	0.296367	0.263733	-0.039833	0.000000
C889	C	0.323250	0.367167	-0.030020	0.000000
C890	C	0.366073	0.364967	-0.060767	0.000000
C891	C	0.381267	0.436800	-0.065717	0.000000
H638	H	0.391567	0.473700	-0.055900	0.000000
C892	C	0.350300	0.309667	-0.075143	0.000000
H639	H	0.339567	0.262300	-0.071567	0.000000
C893	C	0.380800	0.452633	-0.085717	0.000000
C894	C	0.350700	0.325933	-0.095033	0.000000
H640	H	0.340600	0.288800	-0.104833	0.000000
C895	C	0.366050	0.397100	-0.100320	0.000000
C896	C	0.368660	0.412800	-0.121867	0.000000
O379	O	0.211913	0.496133	-0.009127	0.000000
O380	O	0.396167	0.392500	-0.023353	0.000000
O381	O	0.372223	0.255100	-0.033387	0.000000
O382	O	0.368287	0.352800	-0.132630	0.000000
O383	O	0.371683	0.484100	-0.126833	0.000000
S64	S	0.368117	0.340540	-0.035467	0.000000
Ca64	Ca	0.465510	0.409720	-0.014390	0.000000
O384	O	0.197743	0.366333	-0.008597	0.000000
N129	N	0.448802	0.628229	0.492379	0.000000
H641	H	0.471778	0.589481	0.493966	0.000000
H642	H	0.425062	0.607599	0.497030	0.000000
N130	N	0.563176	0.637052	0.410025	0.000000
H643	H	0.573764	0.598101	0.421524	0.000000
H644	H	0.564496	0.618255	0.395969	0.000000
C897	C	0.385733	0.742833	0.488497	0.000000
C898	C	0.421803	0.762833	0.481277	0.000000
C899	C	0.451367	0.707533	0.483883	0.000000
C900	C	0.426167	0.836033	0.472293	0.000000
H645	H	0.406200	0.872967	0.470200	0.000000
C901	C	0.485733	0.725633	0.478370	0.000000
H646	H	0.505633	0.688533	0.480300	0.000000
C902	C	0.460200	0.854333	0.466430	0.000000
H647	H	0.463033	0.902933	0.460167	0.000000
C903	C	0.489917	0.799500	0.469980	0.000000
C904	C	0.532740	0.801700	0.439233	0.000000
C905	C	0.547933	0.729867	0.434283	0.000000
H648	H	0.558233	0.692967	0.444100	0.000000
C906	C	0.516967	0.857000	0.424857	0.000000
H649	H	0.506233	0.904367	0.428433	0.000000
C907	C	0.547467	0.714033	0.414283	0.000000
C908	C	0.517367	0.840733	0.404967	0.000000
H650	H	0.507267	0.877867	0.395167	0.000000
C909	C	0.532717	0.769567	0.399680	0.000000
C910	C	0.535327	0.753867	0.378133	0.000000
O385	O	0.378580	0.670533	0.490873	0.000000
O386	O	0.562833	0.774167	0.476647	0.000000
O387	O	0.538890	0.911567	0.466613	0.000000
O388	O	0.534953	0.813867	0.367370	0.000000
O389	O	0.538350	0.682567	0.373167	0.000000
S65	S	0.534783	0.826127	0.464533	0.000000
Ca65	Ca	0.632177	0.756947	0.485610	0.000000
O390	O	0.364410	0.800333	0.491403	0.000000
N131	N	0.384532	0.794896	0.340955	0.000000
H651	H	0.361555	0.756148	0.339368	0.000000
H652	H	0.408271	0.774266	0.336303	0.000000
N132	N	0.270157	0.803719	0.423308	0.000000
H653	H	0.259569	0.764768	0.411809	0.000000
H654	H	0.268838	0.784921	0.437365	0.000000
C911	C	0.447600	0.909500	0.344837	0.000000
C912	C	0.411530	0.929500	0.352057	0.000000
C913	C	0.381967	0.874200	0.349450	0.000000
C914	C	0.407167	1.002700	0.361040	0.000000
H655	H	0.427133	1.039633	0.363133	0.000000
C915	C	0.347600	0.892300	0.354963	0.000000
H656	H	0.327700	0.855200	0.353033	0.000000
C916	C	0.373133	1.021000	0.366903	0.000000
H657	H	0.370300	1.069600	0.373167	0.000000
C917	C	0.343417	0.966167	0.363353	0.000000
C918	C	0.300593	0.968367	0.394100	0.000000
C919	C	0.285400	0.896533	0.399050	0.000000
H658	H	0.275100	0.859633	0.389233	0.000000
C920	C	0.316367	1.023667	0.408477	0.000000
H659	H	0.327100	1.071033	0.404900	0.000000
C921	C	0.285867	0.880700	0.419050	0.000000
C922	C	0.315967	1.007400	0.428367	0.000000
H660	H	0.326067	1.044533	0.438167	0.000000
C923	C	0.300617	0.936233	0.433653	0.000000
C924	C	0.298007	0.920533	0.455200	0.000000
O391	O	0.454753	0.837200	0.342460	0.000000
O392	O	0.270500	0.940833	0.356687	0.000000
O393	O	0.294443	1.078233	0.366720	0.000000
O394	O	0.298380	0.980533	0.465963	0.000000
O395	O	0.294983	0.849233	0.460167	0.000000
S66	S	0.298550	0.992793	0.368800	0.000000
Ca66	Ca	0.201157	0.923613	0.347723	0.000000
O396	O	0.468923	0.967000	0.341930	0.000000
N133	N	0.217865	0.705104	0.174288	0.000000
H661	H	0.194889	0.743852	0.172701	0.000000
H662	H	0.241605	0.725734	0.169636	0.000000
N134	N	0.103491	0.696281	0.256642	0.000000
H663	H	0.092903	0.735232	0.245143	0.000000
H664	H	0.102171	0.715079	0.270698	0.000000
C925	C	0.280933	0.590500	0.178170	0.000000
C926	C	0.244863	0.570500	0.185390	0.000000
C927	C	0.215300	0.625800	0.182783	0.000000
C928	C	0.240500	0.497300	0.194373	0.000000
H665	H	0.260467	0.460367	0.196467	0.000000
C929	C	0.180933	0.607700	0.188297	0.000000
H666	H	0.161033	0.644800	0.186367	0.000000
C930	C	0.206467	0.479000	0.200237	0.000000
H667	H	0.203633	0.430400	0.206500	0.000000
C931	C	0.176750	0.533833	0.196687	0.000000
C932	C	0.133927	0.531633	0.227433	0.000000
C933	C	0.118733	0.603467	0.232383	0.000000
H668	H	0.108433	0.640367	0.222567	0.000000
C934	C	0.149700	0.476333	0.241810	0.000000
H669	H	0.160433	0.428967	0.238233	0.000000
C935	C	0.119200	0.619300	0.252383	0.000000
C936	C	0.149300	0.492600	0.261700	0.000000
H670	H	0.159400	0.455467	0.271500	0.000000
C937	C	0.133950	0.563767	0.266987	0.000000
C938	C	0.131340	0.579467	0.288533	0.000000
O397	O	0.288087	0.662800	0.175793	0.000000
O398	O	0.103833	0.559167	0.190020	0.000000
O399	O	0.127777	0.421767	0.200053	0.000000
O400	O	0.131713	0.519467	0.299297	0.000000
O401	O	0.128317	0.650767	0.293500	0.000000
S67	S	0.131883	0.507207	0.202133	0.000000
Ca67	Ca	0.034490	0.576387	0.181057	0.000000
O402	O	0.302257	0.533000	0.175263	0.000000
N135	N	0.282135	0.538438	0.325712	0.000000
H671	H	0.305111	0.577185	0.327299	0.000000
H672	H	0.258395	0.559068	0.330364	0.000000
N136	N	0.396509	0.529615	0.243358	0.000000
H673	H	0.407097	0.568565	0.254857	0.000000
H674	H	0.397829	0.548412	0.229302	0.000000
C939	C	0.219067	0.423833	0.321830	0.000000
C940	C	0.255137	0.403833	0.314610	0.000000
C941	C	0.284700	0.459133	0.317217	0.000000
C942	C	0.259500	0.330633	0.305627	0.000000
H675	H	0.239533	0.293700	0.303533	0.000000
C943	C	0.319067	0.441033	0.311703	0.000000
H676	H	0.338967	0.478133	0.313633	0.000000
C944	C	0.293533	0.312333	0.299763	0.000000
H677	H	0.296367	0.263733	0.293500	0.000000
C945	C	0.323250	0.367167	0.303313	0.000000
C946	C	0.366073	0.364967	0.272567	0.000000
C947	C	0.381267	0.436800	0.267617	0.000000
H678	H	0.391567	0.473700	0.277433	0.000000
C948	C	0.350300	0.309667	0.258190	0.000000
H679	H	0.339567	0.262300	0.261767	0.000000
C949	C	0.380800	0.452633	0.247617	0.000000
C950	C	0.350700	0.325933	0.238300	0.000000
H680	H	0.340600	0.288800	0.228500	0.000000
C951	C	0.366050	0.397100	0.233013	0.000000
C952	C	0.368660	0.412800	0.211467	0.000000
O403	O	0.211913	0.496133	0.324207	0.000000
O404	O	0.396167	0.392500	0.309980	0.000000
O405	O	0.372223	0.255100	0.299947	0.000000
O406	O	0.368287	0.352800	0.200703	0.000000
O407	O	0.371683	0.484100	0.206500	0.000000
S68	S	0.368117	0.340540	0.297867	0.000000
Ca68	Ca	0.465510	0.409720	0.318943	0.000000
O408	O	0.197743	0.366333	0.324737	0.000000
N137	N	0.448802	0.628229	0.825712	0.000000
H681	H	0.471778	0.589481	0.827299	0.000000
H682	H	0.425062	0.607599	0.830364	0.000000
N138	N	0.563176	0.637052	0.743358	0.000000
H683	H	0.573764	0.598101	0.754857	0.000000
H684	H	0.564496	0.618255	0.729302	0.000000
C953	C	0.385733	0.742833	0.821830	0.000000
C954	C	0.421803	0.762833	0.814610	0.000000
C955	C	0.451367	0.707533	0.817217	0.000000
C956	C	0.426167	0.836033	0.805627	0.000000
H685	H	0.406200	0.872967	0.803533	0.000000
C957	C	0.485733	0.725633	0.811703	0.000000
H686	H	0.505633	0.688533	0.813633	0.000000
C958	C	0.460200	0.854333	0.799763	0.000000
H687	H	0.463033	0.902933	0.793500	0.000000
C959	C	0.489917	0.799500	0.803313	0.000000
C960	C	0.532740	0.801700	0.772567	0.000000
C961	C	0.547933	0.729867	0.767617	0.000000
H688	H	0.558233	0.692967	0.777433	0.000000
C962	C	0.516967	0.857000	0.758190	0.000000
H689	H	0.506233	0.904367	0.761767	0.000000
C963	C	0.547467	0.714033	0.747617	0.000000
C964	C	0.517367	0.840733	0.738300	0.000000
H690	H	0.507267	0.877867	0.728500	0.000000
C965	C	0.532717	0.769567	0.733013	0.000000
C966	C	0.535327	0.753867	0.711467	0.000000
O409	O	0.378580	0.670533	0.824207	0.000000
O410	O	0.562833	0.774167	0.809980	0.000000
O411	O	0.538890	0.911567	0.799947	0.000000
O412	O	0.534953	0.813867	0.700703	0.000000
O413	O	0.538350	0.682567	0.706500	0.000000
S69	S	0.534783	0.826127	0.797867	0.000000
Ca69	Ca	0.632177	0.756947	0.818943	0.000000
O414	O	0.364410	0.800333	0.824737	0.000000
N139	N	0.384532	0.794896	0.674288	0.000000
H691	H	0.361555	0.756148	0.672701	0.000000
H692	H	0.408271	0.774266	0.669636	0.000000
N140	N	0.270157	0.803719	0.756642	0.000000
H693	H	0.259569	0.764768	0.745143	0.000000
H694	H	0.268838	0.784921	0.770698	0.000000
C967	C	0.447600	0.909500	0.678170	0.000000
C968	C	0.411530	0.929500	0.685390	0.000000
C969	C	0.381967	0.874200	0.682783	0.000000
C970	C	0.407167	1.002700	0.694373	0.000000
H695	H	0.427133	1.039633	0.696467	0.000000
C971	C	0.347600	0.892300	0.688297	0.000000
H696	H	0.327700	0.855200	0.686367	0.000000
C972	C	0.373133	1.021000	0.700237	0.000000
H697	H	0.370300	1.069600	0.706500	0.000000
C973	C	0.343417	0.966167	0.696687	0.000000
C974	C	0.300593	0.968367	0.727433	0.000000
C975	C	0.285400	0.896533	0.732383	0.000000
H698	H	0.275100	0.859633	0.722567	0.000000
C976	C	0.316367	1.023667	0.741810	0.000000
H699	H	0.327100	1.071033	0.738233	0.000000
C977	C	0.285867	0.880700	0.752383	0.000000
C978	C	0.315967	1.007400	0.761700	0.000000
H700	H	0.326067	1.044533	0.771500	0.000000
C979	C	0.300617	0.936233	0.766987	0.000000
C980	C	0.298007	0.920533	0.788533	0.000000
O415	O	0.454753	0.837200	0.675793	0.000000
O416	O	0.270500	0.940833	0.690020	0.000000
O417	O	0.294443	1.078233	0.700053	0.000000
O418	O	0.298380	0.980533	0.799297	0.000000
O419	O	0.294983	0.849233	0.793500	0.000000
S70	S	0.298550	0.992793	0.702133	0.000000
Ca70	Ca	0.201157	0.923613	0.681057	0.000000
O420	O	0.468923	0.967000	0.675263	0.000000
N141	N	0.217865	0.705104	0.507621	0.000000
H701	H	0.194889	0.743852	0.506034	0.000000
H702	H	0.241605	0.725734	0.502970	0.000000
N142	N	0.103491	0.696281	0.589975	0.000000
H703	H	0.092903	0.735232	0.578476	0.000000
H704	H	0.102171	0.715079	0.604031	0.000000
C981	C	0.280933	0.590500	0.511503	0.000000
C982	C	0.244863	0.570500	0.518723	0.000000
C983	C	0.215300	0.625800	0.516117	0.000000
C984	C	0.240500	0.497300	0.527707	0.000000
H705	H	0.260467	0.460367	0.529800	0.000000
C985	C	0.180933	0.607700	0.521630	0.000000
H706	H	0.161033	0.644800	0.519700	0.000000
C986	C	0.206467	0.479000	0.533570	0.000000
H707	H	0.203633	0.430400	0.539833	0.000000
C987	C	0.176750	0.533833	0.530020	0.000000
C988	C	0.133927	0.531633	0.560767	0.000000
C989	C	0.118733	0.603467	0.565717	0.000000
H708	H	0.108433	0.640367	0.555900	0.000000
C990	C	0.149700	0.476333	0.575143	0.000000
H709	H	0.160433	0.428967	0.571567	0.000000
C991	C	0.119200	0.619300	0.585717	0.000000
C992	C	0.149300	0.492600	0.595033	0.000000
H710	H	0.159400	0.455467	0.604833	0.000000
C993	C	0.133950	0.563767	0.600320	0.000000
C994	C	0.131340	0.579467	0.621867	0.000000
O421	O	0.288087	0.662800	0.509127	0.000000
O422	O	0.103833	0.559167	0.523353	0.000000
O423	O	0.127777	0.421767	0.533387	0.000000
O424	O	0.131713	0.519467	0.632630	0.000000
O425	O	0.128317	0.650767	0.626833	0.000000
S71	S	0.131883	0.507207	0.535467	0.000000
Ca71	Ca	0.034490	0.576387	0.514390	0.000000
O426	O	0.302257	0.533000	0.508597	0.000000
N143	N	0.282135	0.538438	0.659045	0.000000
H711	H	0.305111	0.577185	0.660632	0.000000
H712	H	0.258395	0.559068	0.663697	0.000000
N144	N	0.396509	0.529615	0.576692	0.000000
H713	H	0.407097	0.568565	0.588191	0.000000
H714	H	0.397829	0.548412	0.562635	0.000000
C995	C	0.219067	0.423833	0.655163	0.000000
C996	C	0.255137	0.403833	0.647943	0.000000
C997	C	0.284700	0.459133	0.650550	0.000000
C998	C	0.259500	0.330633	0.638960	0.000000
H715	H	0.239533	0.293700	0.636867	0.000000
C999	C	0.319067	0.441033	0.645037	0.000000
H716	H	0.338967	0.478133	0.646967	0.000000
C1000	C	0.293533	0.312333	0.633097	0.000000
H717	H	0.296367	0.263733	0.626833	0.000000
C1001	C	0.323250	0.367167	0.636647	0.000000
C1002	C	0.366073	0.364967	0.605900	0.000000
C1003	C	0.381267	0.436800	0.600950	0.000000
H718	H	0.391567	0.473700	0.610767	0.000000
C1004	C	0.350300	0.309667	0.591523	0.000000
H719	H	0.339567	0.262300	0.595100	0.000000
C1005	C	0.380800	0.452633	0.580950	0.000000
C1006	C	0.350700	0.325933	0.571633	0.000000
H720	H	0.340600	0.288800	0.561833	0.000000
C1007	C	0.366050	0.397100	0.566347	0.000000
C1008	C	0.368660	0.412800	0.544800	0.000000
O427	O	0.211913	0.496133	0.657540	0.000000
O428	O	0.396167	0.392500	0.643313	0.000000
O429	O	0.372223	0.255100	0.633280	0.000000
O430	O	0.368287	0.352800	0.534037	0.000000
O431	O	0.371683	0.484100	0.539833	0.000000
S72	S	0.368117	0.340540	0.631200	0.000000
Ca72	Ca	0.465510	0.409720	0.652277	0.000000
O432	O	0.197743	0.366333	0.658070	0.000000
N145	N	0.782135	-0.038438	0.159045	0.000000
H721	H	0.805111	-0.077185	0.160632	0.000000
H722	H	0.758395	-0.059068	0.163697	0.000000
N146	N	0.896509	-0.029615	0.076692	0.000000
H723	H	0.907097	-0.068565	0.088191	0.000000
H724	H	0.897829	-0.048412	0.062635	0.000000
C1009	C	0.719067	0.076167	0.155163	0.000000
C1010	C	0.755137	0.096167	0.147943	0.000000
C1011	C	0.784700	0.040867	0.150550	0.000000
C1012	C	0.759500	0.169367	0.138960	0.000000
H725	H	0.739533	0.206300	0.136867	0.000000
C1013	C	0.819067	0.058967	0.145037	0.000000
H726	H	0.838967	0.021867	0.146967	0.000000
C1014	C	0.793533	0.187667	0.133097	0.000000
H727	H	0.796367	0.236267	0.126833	0.000000
C1015	C	0.823250	0.132833	0.136647	0.000000
C1016	C	0.866073	0.135033	0.105900	0.000000
C1017	C	0.881267	0.063200	0.100950	0.000000
H728	H	0.891567	0.026300	0.110767	0.000000
C1018	C	0.850300	0.190333	0.091523	0.000000
H729	H	0.839567	0.237700	0.095100	0.000000
C1019	C	0.880800	0.047367	0.080950	0.000000
C1020	C	0.850700	0.174067	0.071633	0.000000
H730	H	0.840600	0.211200	0.061833	0.000000
C1021	C	0.866050	0.102900	0.066347	0.000000
C1022	C	0.868660	0.087200	0.044800	0.000000
O433	O	0.711913	0.003867	0.157540	0.000000
O434	O	0.896167	0.107500	0.143313	0.000000
O435	O	0.872223	0.244900	0.133280	0.000000
O436	O	0.868287	0.147200	0.034037	0.000000
O437	O	0.871683	0.015900	0.039833	0.000000
S73	S	0.868117	0.159460	0.131200	0.000000
Ca73	Ca	0.965510	0.090280	0.152277	0.000000
O438	O	0.697743	0.133667	0.158070	0.000000
N147	N	0.717865	0.128229	0.007621	0.000000
H731	H	0.694889	0.089481	0.006034	0.000000
H732	H	0.741605	0.107599	0.002970	0.000000
N148	N	0.603491	0.137052	0.089975	0.000000
H733	H	0.592903	0.098101	0.078476	0.000000
H734	H	0.602171	0.118255	0.104031	0.000000
C1023	C	0.780933	0.242833	0.011503	0.000000
C1024	C	0.744863	0.262833	0.018723	0.000000
C1025	C	0.715300	0.207533	0.016117	0.000000
C1026	C	0.740500	0.336033	0.027707	0.000000
H735	H	0.760467	0.372967	0.029800	0.000000
C1027	C	0.680933	0.225633	0.021630	0.000000
H736	H	0.661033	0.188533	0.019700	0.000000
C1028	C	0.706467	0.354333	0.033570	0.000000
H737	H	0.703633	0.402933	0.039833	0.000000
C1029	C	0.676750	0.299500	0.030020	0.000000
C1030	C	0.633927	0.301700	0.060767	0.000000
C1031	C	0.618733	0.229867	0.065717	0.000000
H738	H	0.608433	0.192967	0.055900	0.000000
C1032	C	0.649700	0.357000	0.075143	0.000000
H739	H	0.660433	0.404367	0.071567	0.000000
C1033	C	0.619200	0.214033	0.085717	0.000000
C1034	C	0.649300	0.340733	0.095033	0.000000
H740	H	0.659400	0.377867	0.104833	0.000000
C1035	C	0.633950	0.269567	0.100320	0.000000
C1036	C	0.631340	0.253867	0.121867	0.000000
O439	O	0.788087	0.170533	0.009127	0.000000
O440	O	0.603833	0.274167	0.023353	0.000000
O441	O	0.627777	0.411567	0.033387	0.000000
O442	O	0.631713	0.313867	0.132630	0.000000
O443	O	0.628317	0.182567	0.126833	0.000000
S74	S	0.631883	0.326127	0.035467	0.000000
Ca74	Ca	0.534490	0.256947	0.014390	0.000000
O444	O	0.802257	0.300333	0.008597	0.000000
N149	N	0.551198	0.038438	-0.159045	0.000000
H741	H	0.528222	0.077185	-0.160632	0.000000
H742	H	0.574938	0.059068	-0.163697	0.000000
N150	N	0.436824	0.029615	-0.076692	0.000000
H743	H	0.426236	0.068565	-0.088191	0.000000
H744	H	0.435504	0.048412	-0.062635	0.000000
C1037	C	0.614267	-0.076167	-0.155163	0.000000
C1038	C	0.578197	-0.096167	-0.147943	0.000000
C1039	C	0.548633	-0.040867	-0.150550	0.000000
C1040	C	0.573833	-0.169367	-0.138960	0.000000
H745	H	0.593800	-0.206300	-0.136867	0.000000
C1041	C	0.514267	-0.058967	-0.145037	0.000000
H746	H	0.494367	-0.021867	-0.146967	0.000000
C1042	C	0.539800	-0.187667	-0.133097	0.000000
H747	H	0.536967	-0.236267	-0.126833	0.000000
C1043	C	0.510083	-0.132833	-0.136647	0.000000
C1044	C	0.467260	-0.135033	-0.105900	0.000000
C1045	C	0.452067	-0.063200	-0.100950	0.000000
H748	H	0.441767	-0.026300	-0.110767	0.000000
C1046	C	0.483033	-0.190333	-0.091523	0.000000
H749	H	0.493767	-0.237700	-0.095100	0.000000
C1047	C	0.452533	-0.047367	-0.080950	0.000000
C1048	C	0.482633	-0.174067	-0.071633	0.000000
H750	H	0.492733	-0.211200	-0.061833	0.000000
C1049	C	0.467283	-0.102900	-0.066347	0.000000
C1050	C	0.464673	-0.087200	-0.044800	0.000000
O445	O	0.621420	-0.003867	-0.157540	0.000000
O446	O	0.437167	-0.107500	-0.143313	0.000000
O447	O	0.461110	-0.244900	-0.133280	0.000000
O448	O	0.465047	-0.147200	-0.034037	0.000000
O449	O	0.461650	-0.015900	-0.039833	0.000000
S75	S	0.465217	-0.159460	-0.131200	0.000000
Ca75	Ca	0.367823	-0.090280	-0.152277	0.000000
O450	O	0.635590	-0.133667	-0.158070	0.000000
N151	N	0.615468	-0.128229	-0.007621	0.000000
H751	H	0.638445	-0.089481	-0.006034	0.000000
H752	H	0.591729	-0.107599	-0.002970	0.000000
N152	N	0.729843	-0.137052	-0.089975	0.000000
H753	H	0.740431	-0.098101	-0.078476	0.000000
H754	H	0.731162	-0.118255	-0.104031	0.000000
C1051	C	0.552400	-0.242833	-0.011503	0.000000
C1052	C	0.588470	-0.262833	-0.018723	0.000000
C1053	C	0.618033	-0.207533	-0.016117	0.000000
C1054	C	0.592833	-0.336033	-0.027707	0.000000
H755	H	0.572867	-0.372967	-0.029800	0.000000
C1055	C	0.652400	-0.225633	-0.021630	0.000000
H756	H	0.672300	-0.188533	-0.019700	0.000000
C1056	C	0.626867	-0.354333	-0.033570	0.000000
H757	H	0.629700	-0.402933	-0.039833	0.000000
C1057	C	0.656583	-0.299500	-0.030020	0.000000
C1058	C	0.699407	-0.301700	-0.060767	0.000000
C1059	C	0.714600	-0.229867	-0.065717	0.000000
H758	H	0.724900	-0.192967	-0.055900	0.000000
C1060	C	0.683633	-0.357000	-0.075143	0.000000
H759	H	0.672900	-0.404367	-0.071567	0.000000
C1061	C	0.714133	-0.214033	-0.085717	0.000000
C1062	C	0.684033	-0.340733	-0.095033	0.000000
H760	H	0.673933	-0.377867	-0.104833	0.000000
C1063	C	0.699383	-0.269567	-0.100320	0.000000
C1064	C	0.701993	-0.253867	-0.121867	0.000000
O451	O	0.545247	-0.170533	-0.009127	0.000000
O452	O	0.729500	-0.274167	-0.023353	0.000000
O453	O	0.705557	-0.411567	-0.033387	0.000000
O454	O	0.701620	-0.313867	-0.132630	0.000000
O455	O	0.705017	-0.182567	-0.126833	0.000000
S76	S	0.701450	-0.326127	-0.035467	0.000000
Ca76	Ca	0.798843	-0.256947	-0.014390	0.000000
O456	O	0.531077	-0.300333	-0.008597	0.000000
N153	N	0.782135	-0.038438	0.492379	0.000000
H761	H	0.805111	-0.077185	0.493966	0.000000
H762	H	0.758395	-0.059068	0.497030	0.000000
N154	N	0.896509	-0.029615	0.410025	0.000000
H763	H	0.907097	-0.068565	0.421524	0.000000
H764	H	0.897829	-0.048412	0.395969	0.000000
C1065	C	0.719067	0.076167	0.488497	0.000000
C1066	C	0.755137	0.096167	0.481277	0.000000
C1067	C	0.784700	0.040867	0.483883	0.000000
C1068	C	0.759500	0.169367	0.472293	0.000000
H765	H	0.739533	0.206300	0.470200	0.000000
C1069	C	0.819067	0.058967	0.478370	0.000000
H766	H	0.838967	0.021867	0.480300	0.000000
C1070	C	0.793533	0.187667	0.466430	0.000000
H767	H	0.796367	0.236267	0.460167	0.000000
C1071	C	0.823250	0.132833	0.469980	0.000000
C1072	C	0.866073	0.135033	0.439233	0.000000
C1073	C	0.881267	0.063200	0.434283	0.000000
H768	H	0.891567	0.026300	0.444100	0.000000
C1074	C	0.850300	0.190333	0.424857	0.000000
H769	H	0.839567	0.237700	0.428433	0.000000
C1075	C	0.880800	0.047367	0.414283	0.000000
C1076	C	0.850700	0.174067	0.404967	0.000000
H770	H	0.840600	0.211200	0.395167	0.000000
C1077	C	0.866050	0.102900	0.399680	0.000000
C1078	C	0.868660	0.087200	0.378133	0.000000
O457	O	0.711913	0.003867	0.490873	0.000000
O458	O	0.896167	0.107500	0.476647	0.000000
O459	O	0.872223	0.244900	0.466613	0.000000
O460	O	0.868287	0.147200	0.367370	0.000000
O461	O	0.871683	0.015900	0.373167	0.000000
S77	S	0.868117	0.159460	0.464533	0.000000
Ca77	Ca	0.965510	0.090280	0.485610	0.000000
O462	O	0.697743	0.133667	0.491403	0.000000
N155	N	0.717865	0.128229	0.340955	0.000000
H771	H	0.694889	0.089481	0.339368	0.000000
H772	H	0.741605	0.107599	0.336303	0.000000
N156	N	0.603491	0.137052	0.423308	0.000000
H773	H	0.592903	0.098101	0.411809	0.000000
H774	H	0.602171	0.118255	0.437365	0.000000
C1079	C	0.780933	0.242833	0.344837	0.000000
C1080	C	0.744863	0.262833	0.352057	0.000000
C1081	C	0.715300	0.207533	0.349450	0.000000
C1082	C	0.740500	0.336033	0.361040	0.000000
H775	H	0.760467	0.372967	0.363133	0.000000
C1083	C	0.680933	0.225633	0.354963	0.000000
H776	H	0.661033	0.188533	0.353033	0.000000
C1084	C	0.706467	0.354333	0.366903	0.000000
H777	H	0.703633	0.402933	0.373167	0.000000
C1085	C	0.676750	0.299500	0.363353	0.000000
C1086	C	0.633927	0.301700	0.394100	0.000000
C1087	C	0.618733	0.229867	0.399050	0.000000
H778	H	0.608433	0.192967	0.389233	0.000000
C1088	C	0.649700	0.357000	0.408477	0.000000
H779	H	0.660433	0.404367	0.404900	0.000000
C1089	C	0.619200	0.214033	0.419050	0.000000
C1090	C	0.649300	0.340733	0.428367	0.000000
H780	H	0.659400	0.377867	0.438167	0.000000
C1091	C	0.633950	0.269567	0.433653	0.000000
C1092	C	0.631340	0.253867	0.455200	0.000000
O463	O	0.788087	0.170533	0.342460	0.000000
O464	O	0.603833	0.274167	0.356687	0.000000
O465	O	0.627777	0.411567	0.366720	0.000000
O466	O	0.631713	0.313867	0.465963	0.000000
O467	O	0.628317	0.182567	0.460167	0.000000
S78	S	0.631883	0.326127	0.368800	0.000000
Ca78	Ca	0.534490	0.256947	0.347723	0.000000
O468	O	0.802257	0.300333	0.341930	0.000000
N157	N	0.551198	0.038438	0.174288	0.000000
H781	H	0.528222	0.077185	0.172701	0.000000
H782	H	0.574938	0.059068	0.169636	0.000000
N158	N	0.436824	0.029615	0.256642	0.000000
H783	H	0.426236	0.068565	0.245143	0.000000
H784	H	0.435504	0.048412	0.270698	0.000000
C1093	C	0.614267	-0.076167	0.178170	0.000000
C1094	C	0.578197	-0.096167	0.185390	0.000000
C1095	C	0.548633	-0.040867	0.182783	0.000000
C1096	C	0.573833	-0.169367	0.194373	0.000000
H785	H	0.593800	-0.206300	0.196467	0.000000
C1097	C	0.514267	-0.058967	0.188297	0.000000
H786	H	0.494367	-0.021867	0.186367	0.000000
C1098	C	0.539800	-0.187667	0.200237	0.000000
H787	H	0.536967	-0.236267	0.206500	0.000000
C1099	C	0.510083	-0.132833	0.196687	0.000000
C1100	C	0.467260	-0.135033	0.227433	0.000000
C1101	C	0.452067	-0.063200	0.232383	0.000000
H788	H	0.441767	-0.026300	0.222567	0.000000
C1102	C	0.483033	-0.190333	0.241810	0.000000
H789	H	0.493767	-0.237700	0.238233	0.000000
C1103	C	0.452533	-0.047367	0.252383	0.000000
C1104	C	0.482633	-0.174067	0.261700	0.000000
H790	H	0.492733	-0.211200	0.271500	0.000000
C1105	C	0.467283	-0.102900	0.266987	0.000000
C1106	C	0.464673	-0.087200	0.288533	0.000000
O469	O	0.621420	-0.003867	0.175793	0.000000
O470	O	0.437167	-0.107500	0.190020	0.000000
O471	O	0.461110	-0.244900	0.200053	0.000000
O472	O	0.465047	-0.147200	0.299297	0.000000
O473	O	0.461650	-0.015900	0.293500	0.000000
S79	S	0.465217	-0.159460	0.202133	0.000000
Ca79	Ca	0.367823	-0.090280	0.181057	0.000000
O474	O	0.635590	-0.133667	0.175263	0.000000
N159	N	0.615468	-0.128229	0.325712	0.000000
H791	H	0.638445	-0.089481	0.327299	0.000000
H792	H	0.591729	-0.107599	0.330364	0.000000
N160	N	0.729843	-0.137052	0.243358	0.000000
H793	H	0.740431	-0.098101	0.254857	0.000000
H794	H	0.731162	-0.118255	0.229302	0.000000
C1107	C	0.552400	-0.242833	0.321830	0.000000
C1108	C	0.588470	-0.262833	0.314610	0.000000
C1109	C	0.618033	-0.207533	0.317217	0.000000
C1110	C	0.592833	-0.336033	0.305627	0.000000
H795	H	0.572867	-0.372967	0.303533	0.000000
C1111	C	0.652400	-0.225633	0.311703	0.000000
H796	H	0.672300	-0.188533	0.313633	0.000000
C1112	C	0.626867	-0.354333	0.299763	0.000000
H797	H	0.629700	-0.402933	0.293500	0.000000
C1113	C	0.656583	-0.299500	0.303313	0.000000
C1114	C	0.699407	-0.301700	0.272567	0.000000
C1115	C	0.714600	-0.229867	0.267617	0.000000
H798	H	0.724900	-0.192967	0.277433	0.000000
C1116	C	0.683633	-0.357000	0.258190	0.000000
H799	H	0.672900	-0.404367	0.261767	0.000000
C1117	C	0.714133	-0.214033	0.247617	0.000000
C1118	C	0.684033	-0.340733	0.238300	0.000000
H800	H	0.673933	-0.377867	0.228500	0.000000
C1119	C	0.699383	-0.269567	0.233013	0.000000
C1120	C	0.701993	-0.253867	0.211467	0.000000
O475	O	0.545247	-0.170533	0.324207	0.000000
O476	O	0.729500	-0.274167	0.309980	0.000000
O477	O	0.705557	-0.411567	0.299947	0.000000
O478	O	0.701620	-0.313867	0.200703	0.000000
O479	O	0.705017	-0.182567	0.206500	0.000000
S80	S	0.701450	-0.326127	0.297867	0.000000
Ca80	Ca	0.798843	-0.256947	0.318943	0.000000
O480	O	0.531077	-0.300333	0.324737	0.000000
N161	N	0.782135	-0.038438	0.825712	0.000000
H801	H	0.805111	-0.077185	0.827299	0.000000
H802	H	0.758395	-0.059068	0.830364	0.000000
N162	N	0.896509	-0.029615	0.743358	0.000000
H803	H	0.907097	-0.068565	0.754857	0.000000
H804	H	0.897829	-0.048412	0.729302	0.000000
C1121	C	0.719067	0.076167	0.821830	0.000000
C1122	C	0.755137	0.096167	0.814610	0.000000
C1123	C	0.784700	0.040867	0.817217	0.000000
C1124	C	0.759500	0.169367	0.805627	0.000000
H805	H	0.739533	0.206300	0.803533	0.000000
C1125	C	0.819067	0.058967	0.811703	0.000000
H806	H	0.838967	0.021867	0.813633	0.000000
C1126	C	0.793533	0.187667	0.799763	0.000000
H807	H	0.796367	0.236267	0.793500	0.000000
C1127	C	0.823250	0.132833	0.803313	0.000000
C1128	C	0.866073	0.135033	0.772567	0.000000
C1129	C	0.881267	0.063200	0.767617	0.000000
H808	H	0.891567	0.026300	0.777433	0.000000
C1130	C	0.850300	0.190333	0.758190	0.000000
H809	H	0.839567	0.237700	0.761767	0.000000
C1131	C	0.880800	0.047367	0.747617	0.000000
C1132	C	0.850700	0.174067	0.738300	0.000000
H810	H	0.840600	0.211200	0.728500	0.000000
C1133	C	0.866050	0.102900	0.733013	0.000000
C1134	C	0.868660	0.087200	0.711467	0.000000
O481	O	0.711913	0.003867	0.824207	0.000000
O482	O	0.896167	0.107500	0.809980	0.000000
O483	O	0.872223	0.244900	0.799947	0.000000
O484	O	0.868287	0.147200	0.700703	0.000000
O485	O	0.871683	0.015900	0.706500	0.000000
S81	S	0.868117	0.159460	0.797867	0.000000
Ca81	Ca	0.965510	0.090280	0.818943	0.000000
O486	O	0.697743	0.133667	0.824737	0.000000
N163	N	0.717865	0.128229	0.674288	0.000000
H811	H	0.694889	0.089481	0.672701	0.000000
H812	H	0.741605	0.107599	0.669636	0.000000
N164	N	0.603491	0.137052	0.756642	0.000000
H813	H	0.592903	0.098101	0.745143	0.000000
H814	H	0.602171	0.118255	0.770698	0.000000
C1135	C	0.780933	0.242833	0.678170	0.000000
C1136	C	0.744863	0.262833	0.685390	0.000000
C1137	C	0.715300	0.207533	0.682783	0.000000
C1138	C	0.740500	0.336033	0.694373	0.000000
H815	H	0.760467	0.372967	0.696467	0.000000
C1139	C	0.680933	0.225633	0.688297	0.000000
H816	H	0.661033	0.188533	0.686367	0.000000
C1140	C	0.706467	0.354333	0.700237	0.000000
H817	H	0.703633	0.402933	0.706500	0.000000
C1141	C	0.676750	0.299500	0.696687	0.000000
C1142	C	0.633927	0.301700	0.727433	0.000000
C1143	C	0.618733	0.229867	0.732383	0.000000
H818	H	0.608433	0.192967	0.722567	0.000000
C1144	C	0.649700	0.357000	0.741810	0.000000
H819	H	0.660433	0.404367	0.738233	0.000000
C1145	C	0.619200	0.214033	0.752383	0.000000
C1146	C	0.649300	0.340733	0.761700	0.000000
H820	H	0.659400	0.377867	0.771500	0.000000
C1147	C	0.633950	0.269567	0.766987	0.000000
C1148	C	0.631340	0.253867	0.788533	0.000000
O487	O	0.788087	0.170533	0.675793	0.000000
O488	O	0.603833	0.274167	0.690020	0.000000
O489	O	0.627777	0.411567	0.700053	0.000000
O490	O	0.631713	0.313867	0.799297	0.000000
O491	O	0.628317	0.182567	0.793500	0.000000
S82	S	0.631883	0.326127	0.702133	0.000000
Ca82	Ca	0.534490	0.256947	0.681057	0.000000
O492	O	0.802257	0.300333	0.675263	0.000000
N165	N	0.551198	0.038438	0.507621	0.000000
H821	H	0.528222	0.077185	0.506034	0.000000
H822	H	0.574938	0.059068	0.502970	0.000000
N166	N	0.436824	0.029615	0.589975	0.000000
H823	H	0.426236	0.068565	0.578476	0.000000
H824	H	0.435504	0.048412	0.604031	0.000000
C1149	C	0.614267	-0.076167	0.511503	0.000000
C1150	C	0.578197	-0.096167	0.518723	0.000000
C1151	C	0.548633	-0.040867	0.516117	0.000000
C1152	C	0.573833	-0.169367	0.527707	0.000000
H825	H	0.593800	-0.206300	0.529800	0.000000
C1153	C	0.514267	-0.058967	0.521630	0.000000
H826	H	0.494367	-0.021867	0.519700	0.000000
C1154	C	0.539800	-0.187667	0.533570	0.000000
H827	H	0.536967	-0.236267	0.539833	0.000000
C1155	C	0.510083	-0.132833	0.530020	0.000000
C1156	C	0.467260	-0.135033	0.560767	0.000000
C1157	C	0.452067	-0.063200	0.565717	0.000000
H828	H	0.441767	-0.026300	0.555900	0.000000
C1158	C	0.483033	-0.190333	0.575143	0.000000
H829	H	0.493767	-0.237700	0.571567	0.000000
C1159	C	0.452533	-0.047367	0.585717	0.000000
C1160	C	0.482633	-0.174067	0.595033	0.000000
H830	H	0.492733	-0.211200	0.604833	0.000000
C1161	C	0.467283	-0.102900	0.600320	0.000000
C1162	C	0.464673	-0.087200	0.621867	0.000000
O493	O	0.621420	-0.003867	0.509127	0.000000
O494	O	0.437167	-0.107500	0.523353	0.000000
O495	O	0.461110	-0.244900	0.533387	0.000000
O496	O	0.465047	-0.147200	0.632630	0.000000
O497	O	0.461650	-0.015900	0.626833	0.000000
S83	S	0.465217	-0.159460	0.535467	0.000000
Ca83	Ca	0.367823	-0.090280	0.514390	0.000000
O498	O	0.635590	-0.133667	0.508597	0.000000
N167	N	0.615468	-0.128229	0.659045	0.000000
H831	H	0.638445	-0.089481	0.660632	0.000000
H832	H	0.591729	-0.107599	0.663697	0.000000
N168	N	0.729843	-0.137052	0.576692	0.000000
H833	H	0.740431	-0.098101	0.588191	0.000000
H834	H	0.731162	-0.118255	0.562635	0.000000
C1163	C	0.552400	-0.242833	0.655163	0.000000
C1164	C	0.588470	-0.262833	0.647943	0.000000
C1165	C	0.618033	-0.207533	0.650550	0.000000
C1166	C	0.592833	-0.336033	0.638960	0.000000
H835	H	0.572867	-0.372967	0.636867	0.000000
C1167	C	0.652400	-0.225633	0.645037	0.000000
H836	H	0.672300	-0.188533	0.646967	0.000000
C1168	C	0.626867	-0.354333	0.633097	0.000000
H837	H	0.629700	-0.402933	0.626833	0.000000
C1169	C	0.656583	-0.299500	0.636647	0.000000
C1170	C	0.699407	-0.301700	0.605900	0.000000
C1171	C	0.714600	-0.229867	0.600950	0.000000
H838	H	0.724900	-0.192967	0.610767	0.000000
C1172	C	0.683633	-0.357000	0.591523	0.000000
H839	H	0.672900	-0.404367	0.595100	0.000000
C1173	C	0.714133	-0.214033	0.580950	0.000000
C1174	C	0.684033	-0.340733	0.571633	0.000000
H840	H	0.673933	-0.377867	0.561833	0.000000
C1175	C	0.699383	-0.269567	0.566347	0.000000
C1176	C	0.701993	-0.253867	0.544800	0.000000
O499	O	0.545247	-0.170533	0.657540	0.000000
O500	O	0.729500	-0.274167	0.643313	0.000000
O501	O	0.705557	-0.411567	0.633280	0.000000
O502	O	0.701620	-0.313867	0.534037	0.000000
O503	O	0.705017	-0.182567	0.539833	0.000000
S84	S	0.701450	-0.326127	0.631200	0.000000
Ca84	Ca	0.798843	-0.256947	0.652277	0.000000
O504	O	0.531077	-0.300333	0.658070	0.000000
N169	N	0.782135	0.294896	0.159045	0.000000
H841	H	0.805111	0.256148	0.160632	0.000000
H842	H	0.758395	0.274266	0.163697	0.000000
N170	N	0.896509	0.303719	0.076692	0.000000
H843	H	0.907097	0.264768	0.088191	0.000000
H844	H	0.897829	0.284921	0.062635	0.000000
C1177	C	0.719067	0.409500	0.155163	0.000000
C1178	C	0.755137	0.429500	0.147943	0.000000
C1179	C	0.784700	0.374200	0.150550	0.000000
C1180	C	0.759500	0.502700	0.138960	0.000000
H845	H	0.739533	0.539633	0.136867	0.000000
C1181	C	0.819067	0.392300	0.145037	0.000000
H846	H	0.838967	0.355200	0.146967	0.000000
C1182	C	0.793533	0.521000	0.133097	0.000000
H847	H	0.796367	0.569600	0.126833	0.000000
C1183	C	0.823250	0.466167	0.136647	0.000000
C1184	C	0.866073	0.468367	0.105900	0.000000
C1185	C	0.881267	0.396533	0.100950	0.000000
H848	H	0.891567	0.359633	0.110767	0.000000
C1186	C	0.850300	0.523667	0.091523	0.000000
H849	H	0.839567	0.571033	0.095100	0.000000
C1187	C	0.880800	0.380700	0.080950	0.000000
C1188	C	0.850700	0.507400	0.071633	0.000000
H850	H	0.840600	0.544533	0.061833	0.000000
C1189	C	0.866050	0.436233	0.066347	0.000000
C1190	C	0.868660	0.420533	0.044800	0.000000
O505	O	0.711913	0.337200	0.157540	0.000000
O506	O	0.896167	0.440833	0.143313	0.000000
O507	O	0.872223	0.578233	0.133280	0.000000
O508	O	0.868287	0.480533	0.034037	0.000000
O509	O	0.871683	0.349233	0.039833	0.000000
S85	S	0.868117	0.492793	0.131200	0.000000
Ca85	Ca	0.965510	0.423613	0.152277	0.000000
O510	O	0.697743	0.467000	0.158070	0.000000
N171	N	0.717865	0.461562	0.007621	0.000000
H851	H	0.694889	0.422815	0.006034	0.000000
H852	H	0.741605	0.440932	0.002970	0.000000
N172	N	0.603491	0.470385	0.089975	0.000000
H853	H	0.592903	0.431435	0.078476	0.000000
H854	H	0.602171	0.451588	0.104031	0.000000
C1191	C	0.780933	0.576167	0.011503	0.000000
C1192	C	0.744863	0.596167	0.018723	0.000000
C1193	C	0.715300	0.540867	0.016117	0.000000
C1194	C	0.740500	0.669367	0.027707	0.000000
H855	H	0.760467	0.706300	0.029800	0.000000
C1195	C	0.680933	0.558967	0.021630	0.000000
H856	H	0.661033	0.521867	0.019700	0.000000
C1196	C	0.706467	0.687667	0.033570	0.000000
H857	H	0.703633	0.736267	0.039833	0.000000
C1197	C	0.676750	0.632833	0.030020	0.000000
C1198	C	0.633927	0.635033	0.060767	0.000000
C1199	C	0.618733	0.563200	0.065717	0.000000
H858	H	0.608433	0.526300	0.055900	0.000000
C1200	C	0.649700	0.690333	0.075143	0.000000
H859	H	0.660433	0.737700	0.071567	0.000000
C1201	C	0.619200	0.547367	0.085717	0.000000
C1202	C	0.649300	0.674067	0.095033	0.000000
H860	H	0.659400	0.711200	0.104833	0.000000
C1203	C	0.633950	0.602900	0.100320	0.000000
C1204	C	0.631340	0.587200	0.121867	0.000000
O511	O	0.788087	0.503867	0.009127	0.000000
O512	O	0.603833	0.607500	0.023353	0.000000
O513	O	0.627777	0.744900	0.033387	0.000000
O514	O	0.631713	0.647200	0.132630	0.000000
O515	O	0.628317	0.515900	0.126833	0.000000
S86	S	0.631883	0.659460	0.035467	0.000000
Ca86	Ca	0.534490	0.590280	0.014390	0.000000
O516	O	0.802257	0.633667	0.008597	0.000000
N173	N	0.551198	0.371771	-0.159045	0.000000
H861	H	0.528222	0.410519	-0.160632	0.000000
H862	H	0.574938	0.392401	-0.163697	0.000000
N174	N	0.436824	0.362948	-0.076692	0.000000
H863	H	0.426236	0.401899	-0.088191	0.000000
H864	H	0.435504	0.381745	-0.062635	0.000000
C1205	C	0.614267	0.257167	-0.155163	0.000000
C1206	C	0.578197	0.237167	-0.147943	0.000000
C1207	C	0.548633	0.292467	-0.150550	0.000000
C1208	C	0.573833	0.163967	-0.138960	0.000000
H865	H	0.593800	0.127033	-0.136867	0.000000
C1209	C	0.514267	0.274367	-0.145037	0.000000
H866	H	0.494367	0.311467	-0.146967	0.000000
C1210	C	0.539800	0.145667	-0.133097	0.000000
H867	H	0.536967	0.097067	-0.126833	0.000000
C1211	C	0.510083	0.200500	-0.136647	0.000000
C1212	C	0.467260	0.198300	-0.105900	0.000000
C1213	C	0.452067	0.270133	-0.100950	0.000000
H868	H	0.441767	0.307033	-0.110767	0.000000
C1214	C	0.483033	0.143000	-0.091523	0.000000
H869	H	0.493767	0.095633	-0.095100	0.000000
C1215	C	0.452533	0.285967	-0.080950	0.000000
C1216	C	0.482633	0.159267	-0.071633	0.000000
H870	H	0.492733	0.122133	-0.061833	0.000000
C1217	C	0.467283	0.230433	-0.066347	0.000000
C1218	C	0.464673	0.246133	-0.044800	0.000000
O517	O	0.621420	0.329467	-0.157540	0.000000
O518	O	0.437167	0.225833	-0.143313	0.000000
O519	O	0.461110	0.088433	-0.133280	0.000000
O520	O	0.465047	0.186133	-0.034037	0.000000
O521	O	0.461650	0.317433	-0.039833	0.000000
S87	S	0.465217	0.173873	-0.131200	0.000000
Ca87	Ca	0.367823	0.243053	-0.152277	0.000000
O522	O	0.635590	0.199667	-0.158070	0.000000
N175	N	0.615468	0.205104	-0.007621	0.000000
H871	H	0.638445	0.243852	-0.006034	0.000000
H872	H	0.591729	0.225734	-0.002970	0.000000
N176	N	0.729843	0.196281	-0.089975	0.000000
H873	H	0.740431	0.235232	-0.078476	0.000000
H874	H	0.731162	0.215079	-0.104031	0.000000
C1219	C	0.552400	0.090500	-0.011503	0.000000
C1220	C	0.588470	0.070500	-0.018723	0.000000
C1221	C	0.618033	0.125800	-0.016117	0.000000
C1222	C	0.592833	-0.002700	-0.027707	0.000000
H875	H	0.572867	-0.039633	-0.029800	0.000000
C1223	C	0.652400	0.107700	-0.021630	0.000000
H876	H	0.672300	0.144800	-0.019700	0.000000
C1224	C	0.626867	-0.021000	-0.033570	0.000000
H877	H	0.629700	-0.069600	-0.039833	0.000000
C1225	C	0.656583	0.033833	-0.030020	0.000000
C1226	C	0.699407	0.031633	-0.060767	0.000000
C1227	C	0.714600	0.103467	-0.065717	0.000000
H878	H	0.724900	0.140367	-0.055900	0.000000
C1228	C	0.683633	-0.023667	-0.075143	0.000000
H879	H	0.672900	-0.071033	-0.071567	0.000000
C1229	C	0.714133	0.119300	-0.085717	0.000000
C1230	C	0.684033	-0.007400	-0.095033	0.000000
H880	H	0.673933	-0.044533	-0.104833	0.000000
C1231	C	0.699383	0.063767	-0.100320	0.000000
C1232	C	0.701993	0.079467	-0.121867	0.000000
O523	O	0.545247	0.162800	-0.009127	0.000000
O524	O	0.729500	0.059167	-0.023353	0.000000
O525	O	0.705557	-0.078233	-0.033387	0.000000
O526	O	0.701620	0.019467	-0.132630	0.000000
O527	O	0.705017	0.150767	-0.126833	0.000000
S88	S	0.701450	0.007207	-0.035467	0.000000
Ca88	Ca	0.798843	0.076387	-0.014390	0.000000
O528	O	0.531077	0.033000	-0.008597	0.000000
N177	N	0.782135	0.294896	0.492379	0.000000
H881	H	0.805111	0.256148	0.493966	0.000000
H882	H	0.758395	0.274266	0.497030	0.000000
N178	N	0.896509	0.303719	0.410025	0.000000
H883	H	0.907097	0.264768	0.421524	0.000000
H884	H	0.897829	0.284921	0.395969	0.000000
C1233	C	0.719067	0.409500	0.488497	0.000000
C1234	C	0.755137	0.429500	0.481277	0.000000
C1235	C	0.784700	0.374200	0.483883	0.000000
C1236	C	0.759500	0.502700	0.472293	0.000000
H885	H	0.739533	0.539633	0.470200	0.000000
C1237	C	0.819067	0.392300	0.478370	0.000000
H886	H	0.838967	0.355200	0.480300	0.000000
C1238	C	0.793533	0.521000	0.466430	0.000000
H887	H	0.796367	0.569600	0.460167	0.000000
C1239	C	0.823250	0.466167	0.469980	0.000000
C1240	C	0.866073	0.468367	0.439233	0.000000
C1241	C	0.881267	0.396533	0.434283	0.000000
H888	H	0.891567	0.359633	0.444100	0.000000
C1242	C	0.850300	0.523667	0.424857	0.000000
H889	H	0.839567	0.571033	0.428433	0.000000
C1243	C	0.880800	0.380700	0.414283	0.000000
C1244	C	0.850700	0.507400	0.404967	0.000000
H890	H	0.840600	0.544533	0.395167	0.000000
C1245	C	0.866050	0.436233	0.399680	0.000000
C1246	C	0.868660	0.420533	0.378133	0.000000
O529	O	0.711913	0.337200	0.490873	0.000000
O530	O	0.896167	0.440833	0.476647	0.000000
O531	O	0.872223	0.578233	0.466613	0.000000
O532	O	0.868287	0.480533	0.367370	0.000000
O533	O	0.871683	0.349233	0.373167	0.000000
S89	S	0.868117	0.492793	0.464533	0.000000
Ca89	Ca	0.965510	0.423613	0.485610	0.000000
O534	O	0.697743	0.467000	0.491403	0.000000
N179	N	0.717865	0.461562	0.340955	0.000000
H891	H	0.694889	0.422815	0.339368	0.000000
H892	H	0.741605	0.440932	0.336303	0.000000
N180	N	0.603491	0.470385	0.423308	0.000000
H893	H	0.592903	0.431435	0.411809	0.000000
H894	H	0.602171	0.451588	0.437365	0.000000
C1247	C	0.780933	0.576167	0.344837	0.000000
C1248	C	0.744863	0.596167	0.352057	0.000000
C1249	C	0.715300	0.540867	0.349450	0.000000
C1250	C	0.740500	0.669367	0.361040	0.000000
H895	H	0.760467	0.706300	0.363133	0.000000
C1251	C	0.680933	0.558967	0.354963	0.000000
H896	H	0.661033	0.521867	0.353033	0.000000
C1252	C	0.706467	0.687667	0.366903	0.000000
H897	H	0.703633	0.736267	0.373167	0.000000
C1253	C	0.676750	0.632833	0.363353	0.000000
C1254	C	0.633927	0.635033	0.394100	0.000000
C1255	C	0.618733	0.563200	0.399050	0.000000
H898	H	0.608433	0.526300	0.389233	0.000000
C1256	C	0.649700	0.690333	0.408477	0.000000
H899	H	0.660433	0.737700	0.404900	0.000000
C1257	C	0.619200	0.547367	0.419050	0.000000
C1258	C	0.649300	0.674067	0.428367	0.000000
H900	H	0.659400	0.711200	0.438167	0.000000
C1259	C	0.633950	0.602900	0.433653	0.000000
C1260	C	0.631340	0.587200	0.455200	0.000000
O535	O	0.788087	0.503867	0.342460	0.000000
O536	O	0.603833	0.607500	0.356687	0.000000
O537	O	0.627777	0.744900	0.366720	0.000000
O538	O	0.631713	0.647200	0.465963	0.000000
O539	O	0.628317	0.515900	0.460167	0.000000
S90	S	0.631883	0.659460	0.368800	0.000000
Ca90	Ca	0.534490	0.590280	0.347723	0.000000
O540	O	0.802257	0.633667	0.341930	0.000000
N181	N	0.551198	0.371771	0.174288	0.000000
H901	H	0.528222	0.410519	0.172701	0.000000
H902	H	0.574938	0.392401	0.169636	0.000000
N182	N	0.436824	0.362948	0.256642	0.000000
H903	H	0.426236	0.401899	0.245143	0.000000
H904	H	0.435504	0.381745	0.270698	0.000000
C1261	C	0.614267	0.257167	0.178170	0.000000
C1262	C	0.578197	0.237167	0.185390	0.000000
C1263	C	0.548633	0.292467	0.182783	0.000000
C1264	C	0.573833	0.163967	0.194373	0.000000
H905	H	0.593800	0.127033	0.196467	0.000000
C1265	C	0.514267	0.274367	0.188297	0.000000
H906	H	0.494367	0.311467	0.186367	0.000000
C1266	C	0.539800	0.145667	0.200237	0.000000
H907	H	0.536967	0.097067	0.206500	0.000000
C1267	C	0.510083	0.200500	0.196687	0.000000
C1268	C	0.467260	0.198300	0.227433	0.000000
C1269	C	0.452067	0.270133	0.232383	0.000000
H908	H	0.441767	0.307033	0.222567	0.000000
C1270	C	0.483033	0.143000	0.241810	0.000000
H909	H	0.493767	0.095633	0.238233	0.000000
C1271	C	0.452533	0.285967	0.252383	0.000000
C1272	C	0.482633	0.159267	0.261700	0.000000
H910	H	0.492733	0.122133	0.271500	0.000000
C1273	C	0.467283	0.230433	0.266987	0.000000
C1274	C	0.464673	0.246133	0.288533	0.000000
O541	O	0.621420	0.329467	0.175793	0.000000
O542	O	0.437167	0.225833	0.190020	0.000000
O543	O	0.461110	0.088433	0.200053	0.000000
O544	O	0.465047	0.186133	0.299297	0.000000
O545	O	0.461650	0.317433	0.293500	0.000000
S91	S	0.465217	0.173873	0.202133	0.000000
Ca91	Ca	0.367823	0.243053	0.181057	0.000000
O546	O	0.635590	0.199667	0.175263	0.000000
N183	N	0.615468	0.205104	0.325712	0.000000
H911	H	0.638445	0.243852	0.327299	0.000000
H912	H	0.591729	0.225734	0.330364	0.000000
N184	N	0.729843	0.196281	0.243358	0.000000
H913	H	0.740431	0.235232	0.254857	0.000000
H914	H	0.731162	0.215079	0.229302	0.000000
C1275	C	0.552400	0.090500	0.321830	0.000000
C1276	C	0.588470	0.070500	0.314610	0.000000
C1277	C	0.618033	0.125800	0.317217	0.000000
C1278	C	0.592833	-0.002700	0.305627	0.000000
H915	H	0.572867	-0.039633	0.303533	0.000000
C1279	C	0.652400	0.107700	0.311703	0.000000
H916	H	0.672300	0.144800	0.313633	0.000000
C1280	C	0.626867	-0.021000	0.299763	0.000000
H917	H	0.629700	-0.069600	0.293500	0.000000
C1281	C	0.656583	0.033833	0.303313	0.000000
C1282	C	0.699407	0.031633	0.272567	0.000000
C1283	C	0.714600	0.103467	0.267617	0.000000
H918	H	0.724900	0.140367	0.277433	0.000000
C1284	C	0.683633	-0.023667	0.258190	0.000000
H919	H	0.672900	-0.071033	0.261767	0.000000
C1285	C	0.714133	0.119300	0.247617	0.000000
C1286	C	0.684033	-0.007400	0.238300	0.000000
H920	H	0.673933	-0.044533	0.228500	0.000000
C1287	C	0.699383	0.063767	0.233013	0.000000
C1288	C	0.701993	0.079467	0.211467	0.000000
O547	O	0.545247	0.162800	0.324207	0.000000
O548	O	0.729500	0.059167	0.309980	0.000000
O549	O	0.705557	-0.078233	0.299947	0.000000
O550	O	0.701620	0.019467	0.200703	0.000000
O551	O	0.705017	0.150767	0.206500	0.000000
S92	S	0.701450	0.007207	0.297867	0.000000
Ca92	Ca	0.798843	0.076387	0.318943	0.000000
O552	O	0.531077	0.033000	0.324737	0.000000
N185	N	0.782135	0.294896	0.825712	0.000000
H921	H	0.805111	0.256148	0.827299	0.000000
H922	H	0.758395	0.274266	0.830364	0.000000
N186	N	0.896509	0.303719	0.743358	0.000000
H923	H	0.907097	0.264768	0.754857	0.000000
H924	H	0.897829	0.284921	0.729302	0.000000
C1289	C	0.719067	0.409500	0.821830	0.000000
C1290	C	0.755137	0.429500	0.814610	0.000000
C1291	C	0.784700	0.374200	0.817217	0.000000
C1292	C	0.759500	0.502700	0.805627	0.000000
H925	H	0.739533	0.539633	0.803533	0.000000
C1293	C	0.819067	0.392300	0.811703	0.000000
H926	H	0.838967	0.355200	0.813633	0.000000
C1294	C	0.793533	0.521000	0.799763	0.000000
H927	H	0.796367	0.569600	0.793500	0.000000
C1295	C	0.823250	0.466167	0.803313	0.000000
C1296	C	0.866073	0.468367	0.772567	0.000000
C1297	C	0.881267	0.396533	0.767617	0.000000
H928	H	0.891567	0.359633	0.777433	0.000000
C1298	C	0.850300	0.523667	0.758190	0.000000
H929	H	0.839567	0.571033	0.761767	0.000000
C1299	C	0.880800	0.380700	0.747617	0.000000
C1300	C	0.850700	0.507400	0.738300	0.000000
H930	H	0.840600	0.544533	0.728500	0.000000
C1301	C	0.866050	0.436233	0.733013	0.000000
C1302	C	0.868660	0.420533	0.711467	0.000000
O553	O	0.711913	0.337200	0.824207	0.000000
O554	O	0.896167	0.440833	0.809980	0.000000
O555	O	0.872223	0.578233	0.799947	0.000000
O556	O	0.868287	0.480533	0.700703	0.000000
O557	O	0.871683	0.349233	0.706500	0.000000
S93	S	0.868117	0.492793	0.797867	0.000000
Ca93	Ca	0.965510	0.423613	0.818943	0.000000
O558	O	0.697743	0.467000	0.824737	0.000000
N187	N	0.717865	0.461562	0.674288	0.000000
H931	H	0.694889	0.422815	0.672701	0.000000
H932	H	0.741605	0.440932	0.669636	0.000000
N188	N	0.603491	0.470385	0.756642	0.000000
H933	H	0.592903	0.431435	0.745143	0.000000
H934	H	0.602171	0.451588	0.770698	0.000000
C1303	C	0.780933	0.576167	0.678170	0.000000
C1304	C	0.744863	0.596167	0.685390	0.000000
C1305	C	0.715300	0.540867	0.682783	0.000000
C1306	C	0.740500	0.669367	0.694373	0.000000
H935	H	0.760467	0.706300	0.696467	0.000000
C1307	C	0.680933	0.558967	0.688297	0.000000
H936	H	0.661033	0.521867	0.686367	0.000000
C1308	C	0.706467	0.687667	0.700237	0.000000
H937	H	0.703633	0.736267	0.706500	0.000000
C1309	C	0.676750	0.632833	0.696687	0.000000
C1310	C	0.633927	0.635033	0.727433	0.000000
C1311	C	0.618733	0.563200	0.732383	0.000000
H938	H	0.608433	0.526300	0.722567	0.000000
C1312	C	0.649700	0.690333	0.741810	0.000000
H939	H	0.660433	0.737700	0.738233	0.000000
C1313	C	0.619200	0.547367	0.752383	0.000000
C1314	C	0.649300	0.674067	0.761700	0.000000
H940	H	0.659400	0.711200	0.771500	0.000000
C1315	C	0.633950	0.602900	0.766987	0.000000
C1316	C	0.631340	0.587200	0.788533	0.000000
O559	O	0.788087	0.503867	0.675793	0.000000
O560	O	0.603833	0.607500	0.690020	0.000000
O561	O	0.627777	0.744900	0.700053	0.000000
O562	O	0.631713	0.647200	0.799297	0.000000
O563	O	0.628317	0.515900	0.793500	0.000000
S94	S	0.631883	0.659460	0.702133	0.000000
Ca94	Ca	0.534490	0.590280	0.681057	0.000000
O564	O	0.802257	0.633667	0.675263	0.000000
N189	N	0.551198	0.371771	0.507621	0.000000
H941	H	0.528222	0.410519	0.506034	0.000000
H942	H	0.574938	0.392401	0.502970	0.000000
N190	N	0.436824	0.362948	0.589975	0.000000
H943	H	0.426236	0.401899	0.578476	0.000000
H944	H	0.435504	0.381745	0.604031	0.000000
C1317	C	0.614267	0.257167	0.511503	0.000000
C1318	C	0.578197	0.237167	0.518723	0.000000
C1319	C	0.548633	0.292467	0.516117	0.000000
C1320	C	0.573833	0.163967	0.527707	0.000000
H945	H	0.593800	0.127033	0.529800	0.000000
C1321	C	0.514267	0.274367	0.521630	0.000000
H946	H	0.494367	0.311467	0.519700	0.000000
C1322	C	0.539800	0.145667	0.533570	0.000000
H947	H	0.536967	0.097067	0.539833	0.000000
C1323	C	0.510083	0.200500	0.530020	0.000000
C1324	C	0.467260	0.198300	0.560767	0.000000
C1325	C	0.452067	0.270133	0.565717	0.000000
H948	H	0.441767	0.307033	0.555900	0.000000
C1326	C	0.483033	0.143000	0.575143	0.000000
H949	H	0.493767	0.095633	0.571567	0.000000
C1327	C	0.452533	0.285967	0.585717	0.000000
C1328	C	0.482633	0.159267	0.595033	0.000000
H950	H	0.492733	0.122133	0.604833	0.000000
C1329	C	0.467283	0.230433	0.600320	0.000000
C1330	C	0.464673	0.246133	0.621867	0.000000
O565	O	0.621420	0.329467	0.509127	0.000000
O566	O	0.437167	0.225833	0.523353	0.000000
O567	O	0.461110	0.088433	0.533387	0.000000
O568	O	0.465047	0.186133	0.632630	0.000000
O569	O	0.461650	0.317433	0.626833	0.000000
S95	S	0.465217	0.173873	0.535467	0.000000
Ca95	Ca	0.367823	0.243053	0.514390	0.000000
O570	O	0.635590	0.199667	0.508597	0.000000
N191	N	0.615468	0.205104	0.659045	0.000000
H951	H	0.638445	0.243852	0.660632	0.000000
H952	H	0.591729	0.225734	0.663697	0.000000
N192	N	0.729843	0.196281	0.576692	0.000000
H953	H	0.740431	0.235232	0.588191	0.000000
H954	H	0.731162	0.215079	0.562635	0.000000
C1331	C	0.552400	0.090500	0.655163	0.000000
C1332	C	0.588470	0.070500	0.647943	0.000000
C1333	C	0.618033	0.125800	0.650550	0.000000
C1334	C	0.592833	-0.002700	0.638960	0.000000
H955	H	0.572867	-0.039633	0.636867	0.000000
C1335	C	0.652400	0.107700	0.645037	0.000000
H956	H	0.672300	0.144800	0.646967	0.000000
C1336	C	0.626867	-0.021000	0.633097	0.000000
H957	H	0.629700	-0.069600	0.626833	0.000000
C1337	C	0.656583	0.033833	0.636647	0.000000
C1338	C	0.699407	0.031633	0.605900	0.000000
C1339	C	0.714600	0.103467	0.600950	0.000000
H958	H	0.724900	0.140367	0.610767	0.000000
C1340	C	0.683633	-0.023667	0.591523	0.000000
H959	H	0.672900	-0.071033	0.595100	0.000000
C1341	C	0.714133	0.119300	0.580950	0.000000
C1342	C	0.684033	-0.007400	0.571633	0.000000
H960	H	0.673933	-0.044533	0.561833	0.000000
C1343	C	0.699383	0.063767	0.566347	0.000000
C1344	C	0.701993	0.079467	0.544800	0.000000
O571	O	0.545247	0.162800	0.657540	0.000000
O572	O	0.729500	0.059167	0.643313	0.000000
O573	O	0.705557	-0.078233	0.633280	0.000000
O574	O	0.701620	0.019467	0.534037	0.000000
O575	O	0.705017	0.150767	0.539833	0.000000
S96	S	0.701450	0.007207	0.631200	0.000000
Ca96	Ca	0.798843	0.076387	0.652277	0.000000
O576	O	0.531077	0.033000	0.658070	0.000000
N193	N	0.782135	0.628229	0.159045	0.000000
H961	H	0.805111	0.589481	0.160632	0.000000
H962	H	0.758395	0.607599	0.163697	0.000000
N194	N	0.896509	0.637052	0.076692	0.000000
H963	H	0.907097	0.598101	0.088191	0.000000
H964	H	0.897829	0.618255	0.062635	0.000000
C1345	C	0.719067	0.742833	0.155163	0.000000
C1346	C	0.755137	0.762833	0.147943	0.000000
C1347	C	0.784700	0.707533	0.150550	0.000000
C1348	C	0.759500	0.836033	0.138960	0.000000
H965	H	0.739533	0.872967	0.136867	0.000000
C1349	C	0.819067	0.725633	0.145037	0.000000
H966	H	0.838967	0.688533	0.146967	0.000000
C1350	C	0.793533	0.854333	0.133097	0.000000
H967	H	0.796367	0.902933	0.126833	0.000000
C1351	C	0.823250	0.799500	0.136647	0.000000
C1352	C	0.866073	0.801700	0.105900	0.000000
C1353	C	0.881267	0.729867	0.100950	0.000000
H968	H	0.891567	0.692967	0.110767	0.000000
C1354	C	0.850300	0.857000	0.091523	0.000000
H969	H	0.839567	0.904367	0.095100	0.000000
C1355	C	0.880800	0.714033	0.080950	0.000000
C1356	C	0.850700	0.840733	0.071633	0.000000
H970	H	0.840600	0.877867	0.061833	0.000000
C1357	C	0.866050	0.769567	0.066347	0.000000
C1358	C	0.868660	0.753867	0.044800	0.000000
O577	O	0.711913	0.670533	0.157540	0.000000
O578	O	0.896167	0.774167	0.143313	0.000000
O579	O	0.872223	0.911567	0.133280	0.000000
O580	O	0.868287	0.813867	0.034037	0.000000
O581	O	0.871683	0.682567	0.039833	0.000000
S97	S	0.868117	0.826127	0.131200	0.000000
Ca97	Ca	0.965510	0.756947	0.152277	0.000000
O582	O	0.697743	0.800333	0.158070	0.000000
N195	N	0.717865	0.794896	0.007621	0.000000
H971	H	0.694889	0.756148	0.006034	0.000000
H972	H	0.741605	0.774266	0.002970	0.000000
N196	N	0.603491	0.803719	0.089975	0.000000
H973	H	0.592903	0.764768	0.078476	0.000000
H974	H	0.602171	0.784921	0.104031	0.000000
C1359	C	0.780933	0.909500	0.011503	0.000000
C1360	C	0.744863	0.929500	0.018723	0.000000
C1361	C	0.715300	0.874200	0.016117	0.000000
C1362	C	0.740500	1.002700	0.027707	0.000000
H975	H	0.760467	1.039633	0.029800	0.000000
C1363	C	0.680933	0.892300	0.021630	0.000000
H976	H	0.661033	0.855200	0.019700	0.000000
C1364	C	0.706467	1.021000	0.033570	0.000000
H977	H	0.703633	1.069600	0.039833	0.000000
C1365	C	0.676750	0.966167	0.030020	0.000000
C1366	C	0.633927	0.968367	0.060767	0.000000
C1367	C	0.618733	0.896533	0.065717	0.000000
H978	H	0.608433	0.859633	0.055900	0.000000
C1368	C	0.649700	1.023667	0.075143	0.000000
H979	H	0.660433	1.071033	0.071567	0.000000
C1369	C	0.619200	0.880700	0.085717	0.000000
C1370	C	0.649300	1.007400	0.095033	0.000000
H980	H	0.659400	1.044533	0.104833	0.000000
C1371	C	0.633950	0.936233	0.100320	0.000000
C1372	C	0.631340	0.920533	0.121867	0.000000
O583	O	0.788087	0.837200	0.009127	0.000000
O584	O	0.603833	0.940833	0.023353	0.000000
O585	O	0.627777	1.078233	0.033387	0.000000
O586	O	0.631713	0.980533	0.132630	0.000000
O587	O	0.628317	0.849233	0.126833	0.000000
S98	S	0.631883	0.992793	0.035467	0.000000
Ca98	Ca	0.534490	0.923613	0.014390	0.000000
O588	O	0.802257	0.967000	0.008597	0.000000
N197	N	0.551198	0.705104	-0.159045	0.000000
H981	H	0.528222	0.743852	-0.160632	0.000000
H982	H	0.574938	0.725734	-0.163697	0.000000
N198	N	0.436824	0.696281	-0.076692	0.000000
H983	H	0.426236	0.735232	-0.088191	0.000000
H984	H	0.435504	0.715079	-0.062635	0.000000
C1373	C	0.614267	0.590500	-0.155163	0.000000
C1374	C	0.578197	0.570500	-0.147943	0.000000
C1375	C	0.548633	0.625800	-0.150550	0.000000
C1376	C	0.573833	0.497300	-0.138960	0.000000
H985	H	0.593800	0.460367	-0.136867	0.000000
C1377	C	0.514267	0.607700	-0.145037	0.000000
H986	H	0.494367	0.644800	-0.146967	0.000000
C1378	C	0.539800	0.479000	-0.133097	0.000000
H987	H	0.536967	0.430400	-0.126833	0.000000
C1379	C	0.510083	0.533833	-0.136647	0.000000
C1380	C	0.467260	0.531633	-0.105900	0.000000
C1381	C	0.452067	0.603467	-0.100950	0.000000
H988	H	0.441767	0.640367	-0.110767	0.000000
C1382	C	0.483033	0.476333	-0.091523	0.000000
H989	H	0.493767	0.428967	-0.095100	0.000000
C1383	C	0.452533	0.619300	-0.080950	0.000000
C1384	C	0.482633	0.492600	-0.071633	0.000000
H990	H	0.492733	0.455467	-0.061833	0.000000
C1385	C	0.467283	0.563767	-0.066347	0.000000
C1386	C	0.464673	0.579467	-0.044800	0.000000
O589	O	0.621420	0.662800	-0.157540	0.000000
O590	O	0.437167	0.559167	-0.143313	0.000000
O591	O	0.461110	0.421767	-0.133280	0.000000
O592	O	0.465047	0.519467	-0.034037	0.000000
O593	O	0.461650	0.650767	-0.039833	0.000000
S99	S	0.465217	0.507207	-0.131200	0.000000
Ca99	Ca	0.367823	0.576387	-0.152277	0.000000
O594	O	0.635590	0.533000	-0.158070	0.000000
N199	N	0.615468	0.538438	-0.007621	0.000000
H991	H	0.638445	0.577185	-0.006034	0.000000
H992	H	0.591729	0.559068	-0.002970	0.000000
N200	N	0.729843	0.529615	-0.089975	0.000000
H993	H	0.740431	0.568565	-0.078476	0.000000
H994	H	0.731162	0.548412	-0.104031	0.000000
C1387	C	0.552400	0.423833	-0.011503	0.000000
C1388	C	0.588470	0.403833	-0.018723	0.000000
C1389	C	0.618033	0.459133	-0.016117	0.000000
C1390	C	0.592833	0.330633	-0.027707	0.000000
H995	H	0.572867	0.293700	-0.029800	0.000000
C1391	C	0.652400	0.441033	-0.021630	0.000000
H996	H	0.672300	0.478133	-0.019700	0.000000
C1392	C	0.626867	0.312333	-0.033570	0.000000
H997	H	0.629700	0.263733	-0.039833	0.000000
C1393	C	0.656583	0.367167	-0.030020	0.000000
C1394	C	0.699407	0.364967	-0.060767	0.000000
C1395	C	0.714600	0.436800	-0.065717	0.000000
H998	H	0.724900	0.473700	-0.055900	0.000000
C1396	C	0.683633	0.309667	-0.075143	0.000000
H999	H	0.672900	0.262300	-0.071567	0.000000
C1397	C	0.714133	0.452633	-0.085717	0.000000
C1398	C	0.684033	0.325933	-0.095033	0.000000
H1000	H	0.673933	0.288800	-0.104833	0.000000
C1399	C	0.699383	0.397100	-0.100320	0.000000
C1400	C	0.701993	0.412800	-0.121867	0.000000
O595	O	0.545247	0.496133	-0.009127	0.000000
O596	O	0.729500	0.392500	-0.023353	0.000000
O597	O	0.705557	0.255100	-0.033387	0.000000
O598	O	0.701620	0.352800	-0.132630	0.000000
O599	O	0.705017	0.484100	-0.126833	0.000000
S100	S	0.701450	0.340540	-0.035467	0.000000
Ca100	Ca	0.798843	0.409720	-0.014390	0.000000
O600	O	0.531077	0.366333	-0.008597	0.000000
N201	N	0.782135	0.628229	0.492379	0.000000
H1001	H	0.805111	0.589481	0.493966	0.000000
H1002	H	0.758395	0.607599	0.497030	0.000000
N202	N	0.896509	0.637052	0.410025	0.000000
H1003	H	0.907097	0.598101	0.421524	0.000000
H1004	H	0.897829	0.618255	0.395969	0.000000
C1401	C	0.719067	0.742833	0.488497	0.000000
C1402	C	0.755137	0.762833	0.481277	0.000000
C1403	C	0.784700	0.707533	0.483883	0.000000
C1404	C	0.759500	0.836033	0.472293	0.000000
H1005	H	0.739533	0.872967	0.470200	0.000000
C1405	C	0.819067	0.725633	0.478370	0.000000
H1006	H	0.838967	0.688533	0.480300	0.000000
C1406	C	0.793533	0.854333	0.466430	0.000000
H1007	H	0.796367	0.902933	0.460167	0.000000
C1407	C	0.823250	0.799500	0.469980	0.000000
C1408	C	0.866073	0.801700	0.439233	0.000000
C1409	C	0.881267	0.729867	0.434283	0.000000
H1008	H	0.891567	0.692967	0.444100	0.000000
C1410	C	0.850300	0.857000	0.424857	0.000000
H1009	H	0.839567	0.904367	0.428433	0.000000
C1411	C	0.880800	0.714033	0.414283	0.000000
C1412	C	0.850700	0.840733	0.404967	0.000000
H1010	H	0.840600	0.877867	0.395167	0.000000
C1413	C	0.866050	0.769567	0.399680	0.000000
C1414	C	0.868660	0.753867	0.378133	0.000000
O601	O	0.711913	0.670533	0.490873	0.000000
O602	O	0.896167	0.774167	0.476647	0.000000
O603	O	0.872223	0.911567	0.466613	0.000000
O604	O	0.868287	0.813867	0.367370	0.000000
O605	O	0.871683	0.682567	0.373167	0.000000
S101	S	0.868117	0.826127	0.464533	0.000000
Ca101	Ca	0.965510	0.756947	0.485610	0.000000
O606	O	0.697743	0.800333	0.491403	0.000000
N203	N	0.717865	0.794896	0.340955	0.000000
H1011	H	0.694889	0.756148	0.339368	0.000000
H1012	H	0.741605	0.774266	0.336303	0.000000
N204	N	0.603491	0.803719	0.423308	0.000000
H1013	H	0.592903	0.764768	0.411809	0.000000
H1014	H	0.602171	0.784921	0.437365	0.000000
C1415	C	0.780933	0.909500	0.344837	0.000000
C1416	C	0.744863	0.929500	0.352057	0.000000
C1417	C	0.715300	0.874200	0.349450	0.000000
C1418	C	0.740500	1.002700	0.361040	0.000000
H1015	H	0.760467	1.039633	0.363133	0.000000
C1419	C	0.680933	0.892300	0.354963	0.000000
H1016	H	0.661033	0.855200	0.353033	0.000000
C1420	C	0.706467	1.021000	0.366903	0.000000
H1017	H	0.703633	1.069600	0.373167	0.000000
C1421	C	0.676750	0.966167	0.363353	0.000000
C1422	C	0.633927	0.968367	0.394100	0.000000
C1423	C	0.618733	0.896533	0.399050	0.000000
H1018	H	0.608433	0.859633	0.389233	0.000000
C1424	C	0.649700	1.023667	0.408477	0.000000
H1019	H	0.660433	1.071033	0.404900	0.000000
C1425	C	0.619200	0.880700	0.419050	0.000000
C1426	C	0.649300	1.007400	0.428367	0.000000
H1020	H	0.659400	1.044533	0.438167	0.000000
C1427	C	0.633950	0.936233	0.433653	0.000000
C1428	C	0.631340	0.920533	0.455200	0.000000
O607	O	0.788087	0.837200	0.342460	0.000000
O608	O	0.603833	0.940833	0.356687	0.000000
O609	O	0.627777	1.078233	0.366720	0.000000
O610	O	0.631713	0.980533	0.465963	0.000000
O611	O	0.628317	0.849233	0.460167	0.000000
S102	S	0.631883	0.992793	0.368800	0.000000
Ca102	Ca	0.534490	0.923613	0.347723	0.000000
O612	O	0.802257	0.967000	0.341930	0.000000
N205	N	0.551198	0.705104	0.174288	0.000000
H1021	H	0.528222	0.743852	0.172701	0.000000
H1022	H	0.574938	0.725734	0.169636	0.000000
N206	N	0.436824	0.696281	0.256642	0.000000
H1023	H	0.426236	0.735232	0.245143	0.000000
H1024	H	0.435504	0.715079	0.270698	0.000000
C1429	C	0.614267	0.590500	0.178170	0.000000
C1430	C	0.578197	0.570500	0.185390	0.000000
C1431	C	0.548633	0.625800	0.182783	0.000000
C1432	C	0.573833	0.497300	0.194373	0.000000
H1025	H	0.593800	0.460367	0.196467	0.000000
C1433	C	0.514267	0.607700	0.188297	0.000000
H1026	H	0.494367	0.644800	0.186367	0.000000
C1434	C	0.539800	0.479000	0.200237	0.000000
H1027	H	0.536967	0.430400	0.206500	0.000000
C1435	C	0.510083	0.533833	0.196687	0.000000
C1436	C	0.467260	0.531633	0.227433	0.000000
C1437	C	0.452067	0.603467	0.232383	0.000000
H1028	H	0.441767	0.640367	0.222567	0.000000
C1438	C	0.483033	0.476333	0.241810	0.000000
H1029	H	0.493767	0.428967	0.238233	0.000000
C1439	C	0.452533	0.619300	0.252383	0.000000
C1440	C	0.482633	0.492600	0.261700	0.000000
H1030	H	0.492733	0.455467	0.271500	0.000000
C1441	C	0.467283	0.563767	0.266987	0.000000
C1442	C	0.464673	0.579467	0.288533	0.000000
O613	O	0.621420	0.662800	0.175793	0.000000
O614	O	0.437167	0.559167	0.190020	0.000000
O615	O	0.461110	0.421767	0.200053	0.000000
O616	O	0.465047	0.519467	0.299297	0.000000
O617	O	0.461650	0.650767	0.293500	0.000000
S103	S	0.465217	0.507207	0.202133	0.000000
Ca103	Ca	0.367823	0.576387	0.181057	0.000000
O618	O	0.635590	0.533000	0.175263	0.000000
N207	N	0.615468	0.538438	0.325712	0.000000
H1031	H	0.638445	0.577185	0.327299	0.000000
H1032	H	0.591729	0.559068	0.330364	0.000000
N208	N	0.729843	0.529615	0.243358	0.000000
H1033	H	0.740431	0.568565	0.254857	0.000000
H1034	H	0.731162	0.548412	0.229302	0.000000
C1443	C	0.552400	0.423833	0.321830	0.000000
C1444	C	0.588470	0.403833	0.314610	0.000000
C1445	C	0.618033	0.459133	0.317217	0.000000
C1446	C	0.592833	0.330633	0.305627	0.000000
H1035	H	0.572867	0.293700	0.303533	0.000000
C1447	C	0.652400	0.441033	0.311703	0.000000
H1036	H	0.672300	0.478133	0.313633	0.000000
C1448	C	0.626867	0.312333	0.299763	0.000000
H1037	H	0.629700	0.263733	0.293500	0.000000
C1449	C	0.656583	0.367167	0.303313	0.000000
C1450	C	0.699407	0.364967	0.272567	0.000000
C1451	C	0.714600	0.436800	0.267617	0.000000
H1038	H	0.724900	0.473700	0.277433	0.000000
C1452	C	0.683633	0.309667	0.258190	0.000000
H1039	H	0.672900	0.262300	0.261767	0.000000
C1453	C	0.714133	0.452633	0.247617	0.000000
C1454	C	0.684033	0.325933	0.238300	0.000000
H1040	H	0.673933	0.288800	0.228500	0.000000
C1455	C	0.699383	0.397100	0.233013	0.000000
C1456	C	0.701993	0.412800	0.211467	0.000000
O619	O	0.545247	0.496133	0.324207	0.000000
O620	O	0.729500	0.392500	0.309980	0.000000
O621	O	0.705557	0.255100	0.299947	0.000000
O622	O	0.701620	0.352800	0.200703	0.000000
O623	O	0.705017	0.484100	0.206500	0.000000
S104	S	0.701450	0.340540	0.297867	0.000000
Ca104	Ca	0.798843	0.409720	0.318943	0.000000
O624	O	0.531077	0.366333	0.324737	0.000000
N209	N	0.782135	0.628229	0.825712	0.000000
H1041	H	0.805111	0.589481	0.827299	0.000000
H1042	H	0.758395	0.607599	0.830364	0.000000
N210	N	0.896509	0.637052	0.743358	0.000000
H1043	H	0.907097	0.598101	0.754857	0.000000
H1044	H	0.897829	0.618255	0.729302	0.000000
C1457	C	0.719067	0.742833	0.821830	0.000000
C1458	C	0.755137	0.762833	0.814610	0.000000
C1459	C	0.784700	0.707533	0.817217	0.000000
C1460	C	0.759500	0.836033	0.805627	0.000000
H1045	H	0.739533	0.872967	0.803533	0.000000
C1461	C	0.819067	0.725633	0.811703	0.000000
H1046	H	0.838967	0.688533	0.813633	0.000000
C1462	C	0.793533	0.854333	0.799763	0.000000
H1047	H	0.796367	0.902933	0.793500	0.000000
C1463	C	0.823250	0.799500	0.803313	0.000000
C1464	C	0.866073	0.801700	0.772567	0.000000
C1465	C	0.881267	0.729867	0.767617	0.000000
H1048	H	0.891567	0.692967	0.777433	0.000000
C1466	C	0.850300	0.857000	0.758190	0.000000
H1049	H	0.839567	0.904367	0.761767	0.000000
C1467	C	0.880800	0.714033	0.747617	0.000000
C1468	C	0.850700	0.840733	0.738300	0.000000
H1050	H	0.840600	0.877867	0.728500	0.000000
C1469	C	0.866050	0.769567	0.733013	0.000000
C1470	C	0.868660	0.753867	0.711467	0.000000
O625	O	0.711913	0.670533	0.824207	0.000000
O626	O	0.896167	0.774167	0.809980	0.000000
O627	O	0.872223	0.911567	0.799947	0.000000
O628	O	0.868287	0.813867	0.700703	0.000000
O629	O	0.871683	0.682567	0.706500	0.000000
S105	S	0.868117	0.826127	0.797867	0.000000
Ca105	Ca	0.965510	0.756947	0.818943	0.000000
O630	O	0.697743	0.800333	0.824737	0.000000
N211	N	0.717865	0.794896	0.674288	0.000000
H1051	H	0.694889	0.756148	0.672701	0.000000
H1052	H	0.741605	0.774266	0.669636	0.000000
N212	N	0.603491	0.803719	0.756642	0.000000
H1053	H	0.592903	0.764768	0.745143	0.000000
H1054	H	0.602171	0.784921	0.770698	0.000000
C1471	C	0.780933	0.909500	0.678170	0.000000
C1472	C	0.744863	0.929500	0.685390	0.000000
C1473	C	0.715300	0.874200	0.682783	0.000000
C1474	C	0.740500	1.002700	0.694373	0.000000
H1055	H	0.760467	1.039633	0.696467	0.000000
C1475	C	0.680933	0.892300	0.688297	0.000000
H1056	H	0.661033	0.855200	0.686367	0.000000
C1476	C	0.706467	1.021000	0.700237	0.000000
H1057	H	0.703633	1.069600	0.706500	0.000000
C1477	C	0.676750	0.966167	0.696687	0.000000
C1478	C	0.633927	0.968367	0.727433	0.000000
C1479	C	0.618733	0.896533	0.732383	0.000000
H1058	H	0.608433	0.859633	0.722567	0.000000
C1480	C	0.649700	1.023667	0.741810	0.000000
H1059	H	0.660433	1.071033	0.738233	0.000000
C1481	C	0.619200	0.880700	0.752383	0.000000
C1482	C	0.649300	1.007400	0.761700	0.000000
H1060	H	0.659400	1.044533	0.771500	0.000000
C1483	C	0.633950	0.936233	0.766987	0.000000
C1484	C	0.631340	0.920533	0.788533	0.000000
O631	O	0.788087	0.837200	0.675793	0.000000
O632	O	0.603833	0.940833	0.690020	0.000000
O633	O	0.627777	1.078233	0.700053	0.000000
O634	O	0.631713	0.980533	0.799297	0.000000
O635	O	0.628317	0.849233	0.793500	0.000000
S106	S	0.631883	0.992793	0.702133	0.000000
Ca106	Ca	0.534490	0.923613	0.681057	0.000000
O636	O	0.802257	0.967000	0.675263	0.000000
N213	N	0.551198	0.705104	0.507621	0.000000
H1061	H	0.528222	0.743852	0.506034	0.000000
H1062	H	0.574938	0.725734	0.502970	0.000000
N214	N	0.436824	0.696281	0.589975	0.000000
H1063	H	0.426236	0.735232	0.578476	0.000000
H1064	H	0.435504	0.715079	0.604031	0.000000
C1485	C	0.614267	0.590500	0.511503	0.000000
C1486	C	0.578197	0.570500	0.518723	0.000000
C1487	C	0.548633	0.625800	0.516117	0.000000
C1488	C	0.573833	0.497300	0.527707	0.000000
H1065	H	0.593800	0.460367	0.529800	0.000000
C1489	C	0.514267	0.607700	0.521630	0.000000
H1066	H	0.494367	0.644800	0.519700	0.000000
C1490	C	0.539800	0.479000	0.533570	0.000000
H1067	H	0.536967	0.430400	0.539833	0.000000
C1491	C	0.510083	0.533833	0.530020	0.000000
C1492	C	0.467260	0.531633	0.560767	0.000000
C1493	C	0.452067	0.603467	0.565717	0.000000
H1068	H	0.441767	0.640367	0.555900	0.000000
C1494	C	0.483033	0.476333	0.575143	0.000000
H1069	H	0.493767	0.428967	0.571567	0.000000
C1495	C	0.452533	0.619300	0.585717	0.000000
C1496	C	0.482633	0.492600	0.595033	0.000000
H1070	H	0.492733	0.455467	0.604833	0.000000
C1497	C	0.467283	0.563767	0.600320	0.000000
C1498	C	0.464673	0.579467	0.621867	0.000000
O637	O	0.621420	0.662800	0.509127	0.000000
O638	O	0.437167	0.559167	0.523353	0.000000
O639	O	0.461110	0.421767	0.533387	0.000000
O640	O	0.465047	0.519467	0.632630	0.000000
O641	O	0.461650	0.650767	0.626833	0.000000
S107	S	0.465217	0.507207	0.535467	0.000000
Ca107	Ca	0.367823	0.576387	0.514390	0.000000
O642	O	0.635590	0.533000	0.508597	0.000000
N215	N	0.615468	0.538438	0.659045	0.000000
H1071	H	0.638445	0.577185	0.660632	0.000000
H1072	H	0.591729	0.559068	0.663697	0.000000
N216	N	0.729843	0.529615	0.576692	0.000000
H1073	H	0.740431	0.568565	0.588191	0.000000
H1074	H	0.731162	0.548412	0.562635	0.000000
C1499	C	0.552400	0.423833	0.655163	0.000000
C1500	C	0.588470	0.403833	0.647943	0.000000
C1501	C	0.618033	0.459133	0.650550	0.000000
C1502	C	0.592833	0.330633	0.638960	0.000000
H1075	H	0.572867	0.293700	0.636867	0.000000
C1503	C	0.652400	0.441033	0.645037	0.000000
H1076	H	0.672300	0.478133	0.646967	0.000000
C1504	C	0.626867	0.312333	0.633097	0.000000
H1077	H	0.629700	0.263733	0.626833	0.000000
C1505	C	0.656583	0.367167	0.636647	0.000000
C1506	C	0.699407	0.364967	0.605900	0.000000
C1507	C	0.714600	0.436800	0.600950	0.000000
H1078	H	0.724900	0.473700	0.610767	0.000000
C1508	C	0.683633	0.309667	0.591523	0.000000
H1079	H	0.672900	0.262300	0.595100	0.000000
C1509	C	0.714133	0.452633	0.580950	0.000000
C1510	C	0.684033	0.325933	0.571633	0.000000
H1080	H	0.673933	0.288800	0.561833	0.000000
C1511	C	0.699383	0.397100	0.566347	0.000000
C1512	C	0.701993	0.412800	0.544800	0.000000
O643	O	0.545247	0.496133	0.657540	0.000000
O644	O	0.729500	0.392500	0.643313	0.000000
O645	O	0.705557	0.255100	0.633280	0.000000
O646	O	0.701620	0.352800	0.534037	0.000000
O647	O	0.705017	0.484100	0.539833	0.000000
S108	S	0.701450	0.340540	0.631200	0.000000
Ca108	Ca	0.798843	0.409720	0.652277	0.000000
O648	O	0.531077	0.366333	0.658070	0.000000
