data_NiPyC2_relax_sc211_meta_functionalized_PH2_pbesol_relax_frozen_parent_atoms_Round2_PM
_symmetry_space_group_name_H-M	'P1'
_cell_length_a	12.505617
_cell_length_b	12.523412
_cell_length_c	10.276810
_cell_angle_alpha	90.000000
_cell_angle_beta	91.268973
_cell_angle_gamma	90.000000
_symmetry_Int_Tables_number 1

loop_
_symmetry_equiv_pos_as_xyz
'x,y,z'

loop_
_atom_site_label
_atom_site_type_symbol
_atom_site_fract_x
_atom_site_fract_y
_atom_site_fract_z
C1	C	0.274537	0.960700	0.574507
C2	C	0.004066	-0.013441	0.069698
C3	C	0.383205	-0.028369	0.543837
C4	C	0.114852	0.972303	0.066402
C5	C	0.456885	0.898763	0.596783
C6	C	0.182485	0.043061	0.136891
C7	C	0.217342	0.455468	0.646665
C8	C	0.481822	0.492732	0.073908
C9	C	0.255135	0.531882	0.733690
C10	C	0.508294	0.398527	0.137143
C11	C	0.241604	0.884880	0.662735
C12	C	-0.033682	0.071505	0.143013
C13	C	0.418888	0.824068	0.685492
C14	C	0.139685	0.128694	0.204404
C15	C	0.105100	0.640006	0.682214
C16	C	0.359627	0.412049	0.269399
C17	C	0.062429	0.565736	0.595169
C18	C	0.330033	0.511084	0.216432
C19	C	0.120612	0.471990	0.576578
C20	C	0.389906	0.548051	0.109594
C21	C	0.403200	0.065138	0.467100
C22	C	0.172768	0.894064	0.994035
C23	C	0.095230	0.387317	0.487318
C24	C	0.349177	0.630162	1.022743
C25	C	0.785459	0.971078	0.516258
C26	C	0.572162	0.087176	-0.019068
C27	C	0.866927	0.038292	0.562744
C28	C	0.652280	1.017066	0.027492
C29	C	0.921039	1.011319	0.681278
C30	C	0.693034	0.025562	0.154229
C31	C	0.705646	0.542919	0.513068
C32	C	0.964333	0.498355	0.074065
C33	C	0.739906	0.630191	0.585771
C34	C	0.999192	0.408811	0.142376
C35	C	0.758610	0.880378	0.585622
C36	C	0.528769	0.161425	0.065573
C37	C	0.891616	0.915314	0.742115
C38	C	0.647266	0.101994	0.232945
C39	C	0.597328	0.603239	0.729183
C40	C	0.823844	0.337433	0.135205
C41	C	0.559551	0.515071	0.660769
C42	C	0.784517	0.423414	0.063111
C43	C	0.616682	0.483124	0.552680
C44	C	0.855314	0.506711	0.038679
C45	C	0.899778	0.125997	0.479221
C46	C	0.676934	0.934309	0.937862
C47	C	0.596684	0.391625	0.472971
C48	C	0.828240	0.606070	0.978066
H1	H	0.329575	0.524231	0.790127
H2	H	0.082056	0.396791	0.174325
H3	H	0.158920	0.877270	0.692372
H4	H	0.465109	0.217055	0.037796
H5	H	0.471835	0.767856	0.735081
H6	H	0.188722	0.187059	0.257343
H7	H	0.064969	0.715382	0.702360
H8	H	0.313419	0.376037	0.346668
H9	H	0.488951	0.472264	0.692376
H10	H	0.743348	0.988698	0.425248
H11	H	0.947762	-0.067239	1.021089
H12	H	0.541487	0.901580	0.574515
H13	H	0.754937	0.972019	0.191517
H14	H	0.530679	0.522203	0.995202
H15	H	0.809575	0.678155	0.562334
H16	H	0.578993	0.352552	0.114621
H17	H	0.693922	0.827853	0.553868
H18	H	0.881344	0.087430	0.151512
H19	H	0.931186	0.889454	0.832158
H20	H	0.673989	0.114355	0.332979
H21	H	0.558402	0.631002	0.816539
H22	H	0.773820	0.271072	0.165505
H23	H	0.987469	0.581309	0.542528
H24	H	0.701615	0.428125	0.029589
H25	H	0.130926	1.035120	0.398564
H26	H	0.154492	0.135210	0.583172
H27	H	0.394547	0.058117	0.079222
H28	H	0.353669	0.939932	0.239692
H29	H	0.372168	0.334053	0.539880
H30	H	0.266607	0.246874	0.684490
H31	H	0.137208	0.530563	0.287404
H32	H	0.218178	0.678614	0.234381
H33	H	0.097861	0.039110	0.801267
H34	H	0.034995	0.178009	0.692421
H35	H	0.425831	0.008507	0.815382
H36	H	0.554686	0.105420	0.715392
H37	H	0.729174	0.543955	0.254768
H38	H	0.855765	0.446780	0.367819
H39	H	0.099167	0.603408	-0.081703
H40	H	0.068071	0.685799	0.112853
N1	N	0.314805	0.820288	0.720783
N2	N	0.032357	0.139600	0.208538
N3	N	0.198675	0.622852	0.749543
N4	N	0.445346	0.356257	0.230091
N5	N	0.811188	0.852346	0.697326
N6	N	0.565719	0.165522	0.190572
N7	N	0.686059	0.658102	0.693273
N8	N	0.927381	0.333860	0.177824
Ni1	Ni	0.263816	0.732831	0.859324
Ni2	Ni	0.495665	0.236867	0.330541
Ni3	Ni	0.746242	0.754666	0.818947
Ni4	Ni	0.970062	0.244467	0.322728
O1	O	0.177183	0.309248	0.484390
O2	O	0.400766	0.666581	0.925069
O3	O	0.306961	0.120706	0.433847
O4	O	0.140379	0.827013	0.913665
O5	O	0.527342	0.321135	0.486275
O6	O	0.251162	0.663011	1.029194
O7	O	-0.003654	0.163255	0.484723
O8	O	0.284734	0.901166	1.019048
O9	O	0.667407	0.383468	0.369552
O10	O	0.918316	0.670560	0.956847
O11	O	0.839948	0.166029	0.388536
O12	O	0.614442	0.939995	0.822311
O13	O	1.015593	0.378172	0.414648
O14	O	0.738529	0.638950	0.944758
O15	O	0.488994	0.103630	0.432340
O16	O	0.741456	0.860241	0.954501
P1	P	0.204055	0.063301	0.498887
P2	P	0.311790	0.992198	0.126612
P3	P	0.269160	0.333780	0.595060
P4	P	0.235960	0.584925	0.308267
P5	P	0.001832	0.097777	0.779667
P6	P	0.533915	0.041383	0.825747
P7	P	0.749169	0.484089	0.369526
P8	P	0.025480	0.615394	1.018136
