data_SBMOF-1_SBMOF-1_aligned_O-CH3_SBMOF-1_aligned_O-CH3_PM
_symmetry_space_group_name_H-M	'P1'
_cell_length_a	11.878300
_cell_length_b	5.548500
_cell_length_c	22.798200
_cell_angle_alpha	90.000000
_cell_angle_beta	101.535000
_cell_angle_gamma	90.000000
_symmetry_Int_Tables_number 1

loop_
_symmetry_equiv_pos_as_xyz
'x,y,z'

loop_
_atom_site_label
_atom_site_type_symbol
_atom_site_fract_x
_atom_site_fract_y
_atom_site_fract_z
C1	C	0.157200	0.228500	0.465490
C2	C	0.265410	0.288500	0.443830
C3	C	0.354100	0.122600	0.451650
H1	H	0.344400	0.972700	0.468200
C4	C	0.278500	0.508100	0.416880
C5	C	0.457200	0.176900	0.435110
H2	H	0.516900	0.065600	0.440900
C6	C	0.380600	0.563000	0.399290
H3	H	0.389100	0.708800	0.380500
C7	C	0.469750	0.398500	0.409940
C8	C	0.598220	0.405100	0.317700
C9	C	0.643800	0.189600	0.302850
H4	H	0.674700	0.078900	0.332300
C10	C	0.550900	0.571000	0.274570
H5	H	0.518700	0.713100	0.285300
C11	C	0.642400	0.142100	0.242850
H6	H	0.671600	0.996800	0.232000
C12	C	0.552100	0.522200	0.214900
C13	C	0.598150	0.308700	0.199040
C14	C	0.605980	0.261600	0.134400
O1	O	0.135740	0.011600	0.472620
O2	O	0.688500	0.322500	0.429940
O3	O	0.616670	0.734700	0.399840
O4	O	0.604860	0.441600	0.102110
O5	O	0.615050	0.047700	0.119500
S1	S	0.604350	0.478380	0.393600
Ca1	Ca	0.896530	0.270840	0.456830
O6	O	0.093230	0.401000	0.474210
O7	O	0.188440	0.670249	0.407931
C15	C	0.188904	0.894578	0.381818
H7	H	0.104735	0.982768	0.380815
H8	H	0.257303	0.009198	0.408363
H9	H	0.201873	0.876797	0.335087
O8	O	0.507373	0.686095	0.170723
C16	C	0.458827	0.905554	0.179746
H10	H	0.430824	0.996361	0.135909
H11	H	0.382425	0.879048	0.200276
H12	H	0.522854	0.022437	0.208709
C17	C	0.342800	0.728500	0.034510
C18	C	0.234590	0.788500	0.056170
C19	C	0.145900	0.622600	0.048350
H13	H	0.155600	0.472700	0.031800
C20	C	0.221500	0.008100	0.083120
C21	C	0.042800	0.676900	0.064890
H14	H	0.983100	0.565600	0.059100
C22	C	0.119400	0.063000	0.100710
H15	H	0.110900	0.208800	0.119500
C23	C	0.030250	0.898500	0.090060
C24	C	0.901780	0.905100	0.182300
C25	C	0.856200	0.689600	0.197150
H16	H	0.825300	0.578900	0.167700
C26	C	0.949100	0.071000	0.225430
H17	H	0.981300	0.213100	0.214700
C27	C	0.857600	0.642100	0.257150
H18	H	0.828400	0.496800	0.268000
C28	C	0.947900	0.022200	0.285100
C29	C	0.901850	0.808700	0.300960
C30	C	0.894020	0.761600	0.365600
O9	O	0.364260	0.511600	0.027380
O10	O	0.811500	0.822500	0.070060
O11	O	0.883330	0.234700	0.100160
O12	O	0.895140	0.941600	0.397890
O13	O	0.884950	0.547700	0.380500
S2	S	0.895650	0.978380	0.106400
Ca2	Ca	0.603470	0.770840	0.043170
O14	O	0.406770	0.901000	0.025790
O15	O	0.311560	0.170249	0.092069
C31	C	0.311096	0.394578	0.118182
H19	H	0.395265	0.482768	0.119185
H20	H	0.242697	0.509198	0.091637
H21	H	0.298127	0.376797	0.164913
O16	O	0.992627	0.186095	0.329277
C32	C	0.041173	0.405554	0.320254
H22	H	0.069176	0.496361	0.364091
H23	H	0.117575	0.379048	0.299724
H24	H	0.977146	0.522437	0.291291
C33	C	0.842800	0.771500	0.534510
C34	C	0.734590	0.711500	0.556170
C35	C	0.645900	0.877400	0.548350
H25	H	0.655600	0.027300	0.531800
C36	C	0.721500	0.491900	0.583120
C37	C	0.542800	0.823100	0.564890
H26	H	0.483100	0.934400	0.559100
C38	C	0.619400	0.437000	0.600710
H27	H	0.610900	0.291200	0.619500
C39	C	0.530250	0.601500	0.590060
C40	C	0.401780	0.594900	0.682300
C41	C	0.356200	0.810400	0.697150
H28	H	0.325300	0.921100	0.667700
C42	C	0.449100	0.429000	0.725430
H29	H	0.481300	0.286900	0.714700
C43	C	0.357600	0.857900	0.757150
H30	H	0.328400	0.003200	0.768000
C44	C	0.447900	0.477800	0.785100
C45	C	0.401850	0.691300	0.800960
C46	C	0.394020	0.738400	0.865600
O17	O	0.864260	0.988400	0.527380
O18	O	0.311500	0.677500	0.570060
O19	O	0.383330	0.265300	0.600160
O20	O	0.395140	0.558400	0.897890
O21	O	0.384950	0.952300	0.880500
S3	S	0.395650	0.521620	0.606400
Ca3	Ca	0.103470	0.729160	0.543170
O22	O	0.906770	0.599000	0.525790
O23	O	0.811560	0.329751	0.592069
C47	C	0.811096	0.105422	0.618182
H31	H	0.895265	0.017232	0.619185
H32	H	0.742697	0.990802	0.591637
H33	H	0.798127	0.123203	0.664913
O24	O	0.492627	0.313905	0.829277
C48	C	0.541173	0.094446	0.820254
H34	H	0.569176	0.003639	0.864091
H35	H	0.617575	0.120952	0.799724
H36	H	0.477146	0.977563	0.791291
C49	C	0.657200	0.271500	0.965490
C50	C	0.765410	0.211500	0.943830
C51	C	0.854100	0.377400	0.951650
H37	H	0.844400	0.527300	0.968200
C52	C	0.778500	0.991900	0.916880
C53	C	0.957200	0.323100	0.935110
H38	H	0.016900	0.434400	0.940900
C54	C	0.880600	0.937000	0.899290
H39	H	0.889100	0.791200	0.880500
C55	C	0.969750	0.101500	0.909940
C56	C	0.098220	0.094900	0.817700
C57	C	0.143800	0.310400	0.802850
H40	H	0.174700	0.421100	0.832300
C58	C	0.050900	0.929000	0.774570
H41	H	0.018700	0.786900	0.785300
C59	C	0.142400	0.357900	0.742850
H42	H	0.171600	0.503200	0.732000
C60	C	0.052100	0.977800	0.714900
C61	C	0.098150	0.191300	0.699040
C62	C	0.105980	0.238400	0.634400
O25	O	0.635740	0.488400	0.972620
O26	O	0.188500	0.177500	0.929940
O27	O	0.116670	0.765300	0.899840
O28	O	0.104860	0.058400	0.602110
O29	O	0.115050	0.452300	0.619500
S4	S	0.104350	0.021620	0.893600
Ca4	Ca	0.396530	0.229160	0.956830
O30	O	0.593230	0.099000	0.974210
O31	O	0.688440	0.829751	0.907931
C63	C	0.688904	0.605422	0.881818
H43	H	0.604735	0.517232	0.880815
H44	H	0.757303	0.490802	0.908363
H45	H	0.701873	0.623203	0.835087
O32	O	0.007373	0.813905	0.670723
C64	C	0.958827	0.594446	0.679746
H46	H	0.930824	0.503639	0.635909
H47	H	0.882425	0.620952	0.700276
H48	H	0.022854	0.477563	0.708709
