data_SBMOF-1_SBMOF-1_aligned_O-CH2-CH3_SBMOF-1_aligned_O-CH2-CH3_PM
_symmetry_space_group_name_H-M	'P1'
_cell_length_a	11.878300
_cell_length_b	5.548500
_cell_length_c	22.798200
_cell_angle_alpha	90.000000
_cell_angle_beta	101.535000
_cell_angle_gamma	90.000000
_symmetry_Int_Tables_number 1

loop_
_symmetry_equiv_pos_as_xyz
'x,y,z'

loop_
_atom_site_label
_atom_site_type_symbol
_atom_site_fract_x
_atom_site_fract_y
_atom_site_fract_z
C1	C	0.157200	0.228500	0.465490
C2	C	0.265410	0.288500	0.443830
C3	C	0.354100	0.122600	0.451650
H1	H	0.344400	0.972700	0.468200
C4	C	0.278500	0.508100	0.416880
C5	C	0.457200	0.176900	0.435110
H2	H	0.516900	0.065600	0.440900
C6	C	0.380600	0.563000	0.399290
H3	H	0.389100	0.708800	0.380500
C7	C	0.469750	0.398500	0.409940
C8	C	0.598220	0.405100	0.317700
C9	C	0.643800	0.189600	0.302850
H4	H	0.674700	0.078900	0.332300
C10	C	0.550900	0.571000	0.274570
H5	H	0.518700	0.713100	0.285300
C11	C	0.642400	0.142100	0.242850
H6	H	0.671600	0.996800	0.232000
C12	C	0.552100	0.522200	0.214900
C13	C	0.598150	0.308700	0.199040
C14	C	0.605980	0.261600	0.134400
O1	O	0.135740	0.011600	0.472620
O2	O	0.688500	0.322500	0.429940
O3	O	0.616670	0.734700	0.399840
O4	O	0.604860	0.441600	0.102110
O5	O	0.615050	0.047700	0.119500
S1	S	0.604350	0.478380	0.393600
Ca1	Ca	0.896530	0.270840	0.456830
O6	O	0.093230	0.401000	0.474210
O7	O	0.188436	0.670141	0.407945
C15	C	0.188677	0.894756	0.381825
C16	C	0.073508	0.016859	0.380285
H7	H	0.202521	0.876115	0.335220
H8	H	0.257805	0.008169	0.408310
H9	H	0.003202	0.906834	0.353757
H10	H	0.073186	0.197578	0.359326
H11	H	0.058225	0.038264	0.426504
O8	O	0.507396	0.685986	0.170716
C17	C	0.458761	0.905733	0.179625
C18	C	0.420136	0.031390	0.119698
H12	H	0.522915	0.021379	0.208988
H13	H	0.382847	0.878349	0.200573
H14	H	0.494916	0.061519	0.098115
H15	H	0.380952	0.208219	0.126576
H16	H	0.355508	0.919162	0.089740
C19	C	0.342800	0.728500	0.034510
C20	C	0.234590	0.788500	0.056170
C21	C	0.145900	0.622600	0.048350
H17	H	0.155600	0.472700	0.031800
C22	C	0.221500	0.008100	0.083120
C23	C	0.042800	0.676900	0.064890
H18	H	0.983100	0.565600	0.059100
C24	C	0.119400	0.063000	0.100710
H19	H	0.110900	0.208800	0.119500
C25	C	0.030250	0.898500	0.090060
C26	C	0.901780	0.905100	0.182300
C27	C	0.856200	0.689600	0.197150
H20	H	0.825300	0.578900	0.167700
C28	C	0.949100	0.071000	0.225430
H21	H	0.981300	0.213100	0.214700
C29	C	0.857600	0.642100	0.257150
H22	H	0.828400	0.496800	0.268000
C30	C	0.947900	0.022200	0.285100
C31	C	0.901850	0.808700	0.300960
C32	C	0.894020	0.761600	0.365600
O9	O	0.364260	0.511600	0.027380
O10	O	0.811500	0.822500	0.070060
O11	O	0.883330	0.234700	0.100160
O12	O	0.895140	0.941600	0.397890
O13	O	0.884950	0.547700	0.380500
S2	S	0.895650	0.978380	0.106400
Ca2	Ca	0.603470	0.770840	0.043170
O14	O	0.406770	0.901000	0.025790
O15	O	0.311564	0.170141	0.092055
C33	C	0.311323	0.394756	0.118175
C34	C	0.426492	0.516859	0.119715
H23	H	0.297479	0.376115	0.164780
H24	H	0.242195	0.508169	0.091690
H25	H	0.496798	0.406834	0.146243
H26	H	0.426814	0.697578	0.140674
H27	H	0.441775	0.538264	0.073496
O16	O	0.992604	0.185986	0.329284
C35	C	0.041239	0.405733	0.320375
C36	C	0.079864	0.531390	0.380302
H28	H	0.977085	0.521379	0.291012
H29	H	0.117153	0.378349	0.299427
H30	H	0.005084	0.561519	0.401885
H31	H	0.119048	0.708219	0.373424
H32	H	0.144492	0.419162	0.410260
C37	C	0.842800	0.771500	0.534510
C38	C	0.734590	0.711500	0.556170
C39	C	0.645900	0.877400	0.548350
H33	H	0.655600	0.027300	0.531800
C40	C	0.721500	0.491900	0.583120
C41	C	0.542800	0.823100	0.564890
H34	H	0.483100	0.934400	0.559100
C42	C	0.619400	0.437000	0.600710
H35	H	0.610900	0.291200	0.619500
C43	C	0.530250	0.601500	0.590060
C44	C	0.401780	0.594900	0.682300
C45	C	0.356200	0.810400	0.697150
H36	H	0.325300	0.921100	0.667700
C46	C	0.449100	0.429000	0.725430
H37	H	0.481300	0.286900	0.714700
C47	C	0.357600	0.857900	0.757150
H38	H	0.328400	0.003200	0.768000
C48	C	0.447900	0.477800	0.785100
C49	C	0.401850	0.691300	0.800960
C50	C	0.394020	0.738400	0.865600
O17	O	0.864260	0.988400	0.527380
O18	O	0.311500	0.677500	0.570060
O19	O	0.383330	0.265300	0.600160
O20	O	0.395140	0.558400	0.897890
O21	O	0.384950	0.952300	0.880500
S3	S	0.395650	0.521620	0.606400
Ca3	Ca	0.103470	0.729160	0.543170
O22	O	0.906770	0.599000	0.525790
O23	O	0.811564	0.329859	0.592055
C51	C	0.811323	0.105244	0.618175
C52	C	0.926492	0.983141	0.619715
H39	H	0.797479	0.123885	0.664780
H40	H	0.742195	0.991831	0.591690
H41	H	0.996798	0.093166	0.646243
H42	H	0.926814	0.802422	0.640674
H43	H	0.941775	0.961736	0.573496
O24	O	0.492604	0.314014	0.829284
C53	C	0.541239	0.094267	0.820375
C54	C	0.579864	0.968610	0.880302
H44	H	0.477085	0.978621	0.791012
H45	H	0.617153	0.121651	0.799427
H46	H	0.505084	0.938481	0.901885
H47	H	0.619048	0.791781	0.873424
H48	H	0.644492	0.080838	0.910260
C55	C	0.657200	0.271500	0.965490
C56	C	0.765410	0.211500	0.943830
C57	C	0.854100	0.377400	0.951650
H49	H	0.844400	0.527300	0.968200
C58	C	0.778500	0.991900	0.916880
C59	C	0.957200	0.323100	0.935110
H50	H	0.016900	0.434400	0.940900
C60	C	0.880600	0.937000	0.899290
H51	H	0.889100	0.791200	0.880500
C61	C	0.969750	0.101500	0.909940
C62	C	0.098220	0.094900	0.817700
C63	C	0.143800	0.310400	0.802850
H52	H	0.174700	0.421100	0.832300
C64	C	0.050900	0.929000	0.774570
H53	H	0.018700	0.786900	0.785300
C65	C	0.142400	0.357900	0.742850
H54	H	0.171600	0.503200	0.732000
C66	C	0.052100	0.977800	0.714900
C67	C	0.098150	0.191300	0.699040
C68	C	0.105980	0.238400	0.634400
O25	O	0.635740	0.488400	0.972620
O26	O	0.188500	0.177500	0.929940
O27	O	0.116670	0.765300	0.899840
O28	O	0.104860	0.058400	0.602110
O29	O	0.115050	0.452300	0.619500
S4	S	0.104350	0.021620	0.893600
Ca4	Ca	0.396530	0.229160	0.956830
O30	O	0.593230	0.099000	0.974210
O31	O	0.688436	0.829859	0.907945
C69	C	0.688677	0.605244	0.881825
C70	C	0.573508	0.483141	0.880285
H55	H	0.702521	0.623885	0.835220
H56	H	0.757805	0.491831	0.908310
H57	H	0.503202	0.593166	0.853757
H58	H	0.573186	0.302422	0.859326
H59	H	0.558225	0.461736	0.926504
O32	O	0.007396	0.814014	0.670716
C71	C	0.958761	0.594267	0.679625
C72	C	0.920136	0.468610	0.619698
H60	H	0.022915	0.478621	0.708988
H61	H	0.882847	0.621651	0.700573
H62	H	0.994916	0.438481	0.598115
H63	H	0.880952	0.291781	0.626576
H64	H	0.855508	0.580838	0.589740
