data_NiPyC2_NiPyC2_aligned_CH2-CH2-CH3_NiPyC2_aligned_CH2-CH2-CH3_PM
_symmetry_space_group_name_H-M	'P1'
_cell_length_a	6.252800
_cell_length_b	12.523400
_cell_length_c	10.276800
_cell_angle_alpha	90.000000
_cell_angle_beta	91.269000
_cell_angle_gamma	90.000000
_symmetry_Int_Tables_number 1

loop_
_symmetry_equiv_pos_as_xyz
'x,y,z'

loop_
_atom_site_label
_atom_site_type_symbol
_atom_site_fract_x
_atom_site_fract_y
_atom_site_fract_z
Ni1	Ni	0.494800	0.753960	0.839430
O1	O	0.241300	0.349620	0.392900
O2	O	0.754900	0.133080	0.370200
O3	O	0.936900	0.352230	0.497300
O4	O	0.066500	0.119800	0.474200
N1	N	0.627900	0.842900	0.696200
N2	N	0.361100	0.646100	0.715100
C1	C	0.587800	0.959300	0.513400
H1	H	0.500200	0.986200	0.444100
C2	C	0.793200	0.998000	0.533700
C3	C	0.917100	0.954600	0.635400
H2	H	0.060200	0.977800	0.650500
C4	C	0.407700	0.519100	0.544100
H3	H	0.495100	0.491000	0.477800
C5	C	0.480300	0.603200	0.621700
H4	H	0.619100	0.631300	0.607900
C6	C	0.511500	0.880900	0.595000
H5	H	0.372100	0.853000	0.579100
C7	C	0.828500	0.877700	0.713700
C8	C	0.164500	0.604500	0.734600
C9	C	0.082600	0.520300	0.662600
H6	H	0.944600	0.492500	0.679100
C10	C	0.207900	0.477000	0.564600
C11	C	0.878000	0.089300	0.455000
C12	C	0.122000	0.386200	0.481500
C13	C	0.970500	0.829269	0.828243
C14	C	0.863277	0.743832	0.912332
H7	H	0.114272	0.792093	0.785434
H8	H	0.020282	0.895607	0.894113
C15	C	0.016228	0.703446	0.019238
H9	H	0.720256	0.778238	0.959172
H10	H	0.814186	0.674791	0.850560
H11	H	0.066549	0.770160	0.084250
H12	H	0.934809	0.642008	0.078282
H13	H	0.160202	0.667020	0.975958
C16	C	0.022997	0.654495	0.844417
C17	C	0.122367	0.748106	0.921536
H14	H	0.986520	0.590481	0.915517
H15	H	0.871852	0.683969	0.798108
C18	C	0.969923	0.789000	0.024308
H16	H	0.157993	0.815022	0.854298
H17	H	0.272588	0.721591	0.971631
H18	H	0.818658	0.817697	0.977594
H19	H	0.045606	0.856387	0.078360
H20	H	0.932914	0.724542	0.094580
Ni2	Ni	0.994800	0.246040	0.339430
O5	O	0.741300	0.650380	0.892900
O6	O	0.254900	0.866920	0.870200
O7	O	0.436900	0.647770	0.997300
O8	O	0.566500	0.880200	0.974200
N3	N	0.127900	0.157100	0.196200
N4	N	0.861100	0.353900	0.215100
C19	C	0.087800	0.040700	0.013400
H21	H	0.000200	0.013800	0.944100
C20	C	0.293200	0.002000	0.033700
C21	C	0.417100	0.045400	0.135400
H22	H	0.560200	0.022200	0.150500
C22	C	0.907700	0.480900	0.044100
H23	H	0.995100	0.509000	0.977800
C23	C	0.980300	0.396800	0.121700
H24	H	0.119100	0.368700	0.107900
C24	C	0.011500	0.119100	0.095000
H25	H	0.872100	0.147000	0.079100
C25	C	0.328500	0.122300	0.213700
C26	C	0.664500	0.395500	0.234600
C27	C	0.582600	0.479700	0.162600
H26	H	0.444600	0.507500	0.179100
C28	C	0.707900	0.523000	0.064600
C29	C	0.378000	0.910700	0.955000
C30	C	0.622000	0.613800	0.981500
C31	C	0.470500	0.170731	0.328243
C32	C	0.363277	0.256168	0.412332
H27	H	0.614272	0.207907	0.285434
H28	H	0.520282	0.104393	0.394113
C33	C	0.516228	0.296554	0.519238
H29	H	0.220256	0.221762	0.459172
H30	H	0.314186	0.325209	0.350560
H31	H	0.566549	0.229840	0.584250
H32	H	0.434809	0.357992	0.578282
H33	H	0.660202	0.332980	0.475958
C34	C	0.522997	0.345505	0.344417
C35	C	0.622367	0.251894	0.421536
H34	H	0.486520	0.409519	0.415517
H35	H	0.371852	0.316031	0.298108
C36	C	0.469923	0.211000	0.524308
H36	H	0.657993	0.184978	0.354298
H37	H	0.772588	0.278409	0.471631
H38	H	0.318658	0.182303	0.477594
H39	H	0.545606	0.143613	0.578360
H40	H	0.432914	0.275458	0.594580
