data_NiPyC2_NiPyC2_aligned_O-CH2-CH2-CH3_NiPyC2_aligned_O-CH2-CH2-CH3_PM
_symmetry_space_group_name_H-M	'P1'
_cell_length_a	6.252800
_cell_length_b	12.523400
_cell_length_c	10.276800
_cell_angle_alpha	90.000000
_cell_angle_beta	91.269000
_cell_angle_gamma	90.000000
_symmetry_Int_Tables_number 1

loop_
_symmetry_equiv_pos_as_xyz
'x,y,z'

loop_
_atom_site_label
_atom_site_type_symbol
_atom_site_fract_x
_atom_site_fract_y
_atom_site_fract_z
Ni1	Ni	0.494800	0.753960	0.839430
O1	O	0.241300	0.349620	0.392900
O2	O	0.754900	0.133080	0.370200
O3	O	0.936900	0.352230	0.497300
O4	O	0.066500	0.119800	0.474200
N1	N	0.627900	0.842900	0.696200
N2	N	0.361100	0.646100	0.715100
C1	C	0.587800	0.959300	0.513400
H1	H	0.500200	0.986200	0.444100
C2	C	0.793200	0.998000	0.533700
C3	C	0.917100	0.954600	0.635400
H2	H	0.060200	0.977800	0.650500
C4	C	0.407700	0.519100	0.544100
H3	H	0.495100	0.491000	0.477800
C5	C	0.480300	0.603200	0.621700
H4	H	0.619100	0.631300	0.607900
C6	C	0.511500	0.880900	0.595000
C7	C	0.828500	0.877700	0.713700
H5	H	0.913300	0.848300	0.782600
C8	C	0.164500	0.604500	0.734600
C9	C	0.082600	0.520300	0.662600
H6	H	0.944600	0.492500	0.679100
C10	C	0.207900	0.477000	0.564600
C11	C	0.878000	0.089300	0.455000
C12	C	0.122000	0.386200	0.481500
O5	O	0.305098	0.841668	0.568222
C13	C	0.203606	0.763668	0.639145
C14	C	0.981642	0.743208	0.579218
H7	H	0.298428	0.688536	0.637039
H8	H	0.187130	0.790775	0.741533
C15	C	0.862682	0.657415	0.654291
H9	H	0.887202	0.818410	0.580334
H10	H	0.997720	0.716887	0.476577
H11	H	0.841836	0.682711	0.756843
H12	H	0.702302	0.644373	0.608497
H13	H	0.952623	0.580940	0.652835
O6	O	0.034629	0.647220	0.831596
C16	C	0.089628	0.731197	0.912837
C17	C	0.905615	0.753400	0.004337
H14	H	0.120705	0.803789	0.853774
H15	H	0.235479	0.710182	0.971314
C18	C	0.958680	0.845775	0.096332
H16	H	0.873249	0.680674	0.062741
H17	H	0.759286	0.773626	0.946027
H18	H	0.102770	0.826675	0.157109
H19	H	0.822191	0.859946	0.161446
H20	H	0.988533	0.919855	0.040112
Ni2	Ni	0.994800	0.246040	0.339430
O7	O	0.741300	0.650380	0.892900
O8	O	0.254900	0.866920	0.870200
O9	O	0.436900	0.647770	0.997300
O10	O	0.566500	0.880200	0.974200
N3	N	0.127900	0.157100	0.196200
N4	N	0.861100	0.353900	0.215100
C19	C	0.087800	0.040700	0.013400
H21	H	0.000200	0.013800	0.944100
C20	C	0.293200	0.002000	0.033700
C21	C	0.417100	0.045400	0.135400
H22	H	0.560200	0.022200	0.150500
C22	C	0.907700	0.480900	0.044100
H23	H	0.995100	0.509000	0.977800
C23	C	0.980300	0.396800	0.121700
H24	H	0.119100	0.368700	0.107900
C24	C	0.011500	0.119100	0.095000
C25	C	0.328500	0.122300	0.213700
H25	H	0.413300	0.151700	0.282600
C26	C	0.664500	0.395500	0.234600
C27	C	0.582600	0.479700	0.162600
H26	H	0.444600	0.507500	0.179100
C28	C	0.707900	0.523000	0.064600
C29	C	0.378000	0.910700	0.955000
C30	C	0.622000	0.613800	0.981500
O11	O	0.805098	0.158332	0.068222
C31	C	0.703606	0.236332	0.139145
C32	C	0.481642	0.256792	0.079218
H27	H	0.798428	0.311464	0.137039
H28	H	0.687130	0.209225	0.241533
C33	C	0.362682	0.342585	0.154291
H29	H	0.387202	0.181590	0.080334
H30	H	0.497720	0.283113	0.976577
H31	H	0.341836	0.317289	0.256843
H32	H	0.202302	0.355627	0.108497
H33	H	0.452623	0.419060	0.152835
O12	O	0.534629	0.352780	0.331596
C34	C	0.589628	0.268803	0.412837
C35	C	0.405615	0.246600	0.504337
H34	H	0.620705	0.196211	0.353774
H35	H	0.735479	0.289818	0.471314
C36	C	0.458680	0.154225	0.596332
H36	H	0.373249	0.319326	0.562741
H37	H	0.259286	0.226374	0.446027
H38	H	0.602770	0.173325	0.657109
H39	H	0.322191	0.140054	0.661446
H40	H	0.488533	0.080145	0.540112
