data_NiPyC2_NiPyC2_aligned_CH2-CH3_NiPyC2_aligned_CH2-CH3_PM
_symmetry_space_group_name_H-M	'P1'
_cell_length_a	6.252800
_cell_length_b	12.523400
_cell_length_c	10.276800
_cell_angle_alpha	90.000000
_cell_angle_beta	91.269000
_cell_angle_gamma	90.000000
_symmetry_Int_Tables_number 1

loop_
_symmetry_equiv_pos_as_xyz
'x,y,z'

loop_
_atom_site_label
_atom_site_type_symbol
_atom_site_fract_x
_atom_site_fract_y
_atom_site_fract_z
Ni1	Ni	0.494800	0.753960	0.839430
O1	O	0.241300	0.349620	0.392900
O2	O	0.754900	0.133080	0.370200
O3	O	0.936900	0.352230	0.497300
O4	O	0.066500	0.119800	0.474200
N1	N	0.627900	0.842900	0.696200
N2	N	0.361100	0.646100	0.715100
C1	C	0.587800	0.959300	0.513400
C2	C	0.793200	0.998000	0.533700
C3	C	0.917100	0.954600	0.635400
H1	H	0.060200	0.977800	0.650500
C4	C	0.407700	0.519100	0.544100
H2	H	0.495100	0.491000	0.477800
C5	C	0.480300	0.603200	0.621700
H3	H	0.619100	0.631300	0.607900
C6	C	0.511500	0.880900	0.595000
H4	H	0.372100	0.853000	0.579100
C7	C	0.828500	0.877700	0.713700
H5	H	0.913300	0.848300	0.782600
C8	C	0.164500	0.604500	0.734600
H6	H	0.079300	0.634600	0.800700
C9	C	0.082600	0.520300	0.662600
C10	C	0.207900	0.477000	0.564600
C11	C	0.878000	0.089300	0.455000
C12	C	0.122000	0.386200	0.481500
C13	C	0.443415	0.002566	0.401014
C14	C	0.219061	0.954415	0.387034
H7	H	0.422535	0.089886	0.415137
H8	H	0.524804	0.987836	0.307673
H9	H	0.125951	0.969601	0.475963
H10	H	0.133033	0.992233	0.303311
H11	H	0.228542	0.867226	0.368156
C15	C	0.858746	0.475397	0.689823
C16	C	0.735863	0.528903	0.799293
H12	H	0.875229	0.389670	0.716078
H13	H	0.758159	0.483077	0.599810
H14	H	0.824849	0.520871	0.893539
H15	H	0.578034	0.489350	0.808942
H16	H	0.707404	0.614575	0.776901
Ni2	Ni	0.994800	0.246040	0.339430
O5	O	0.741300	0.650380	0.892900
O6	O	0.254900	0.866920	0.870200
O7	O	0.436900	0.647770	0.997300
O8	O	0.566500	0.880200	0.974200
N3	N	0.127900	0.157100	0.196200
N4	N	0.861100	0.353900	0.215100
C17	C	0.087800	0.040700	0.013400
C18	C	0.293200	0.002000	0.033700
C19	C	0.417100	0.045400	0.135400
H17	H	0.560200	0.022200	0.150500
C20	C	0.907700	0.480900	0.044100
H18	H	0.995100	0.509000	0.977800
C21	C	0.980300	0.396800	0.121700
H19	H	0.119100	0.368700	0.107900
C22	C	0.011500	0.119100	0.095000
H20	H	0.872100	0.147000	0.079100
C23	C	0.328500	0.122300	0.213700
H21	H	0.413300	0.151700	0.282600
C24	C	0.664500	0.395500	0.234600
H22	H	0.579300	0.365400	0.300700
C25	C	0.582600	0.479700	0.162600
C26	C	0.707900	0.523000	0.064600
C27	C	0.378000	0.910700	0.955000
C28	C	0.622000	0.613800	0.981500
C29	C	0.943415	0.997434	0.901014
C30	C	0.719061	0.045585	0.887034
H23	H	0.922535	0.910114	0.915137
H24	H	0.024804	0.012164	0.807673
H25	H	0.625951	0.030399	0.975963
H26	H	0.633033	0.007767	0.803311
H27	H	0.728542	0.132774	0.868156
C31	C	0.358746	0.524603	0.189823
C32	C	0.235863	0.471097	0.299293
H28	H	0.375229	0.610330	0.216078
H29	H	0.258159	0.516923	0.099810
H30	H	0.324849	0.479129	0.393539
H31	H	0.078034	0.510650	0.308942
H32	H	0.207404	0.385425	0.276901
