data_removed_atoms_NiPyC2_NiPyC2_aligned_O-CH3_NiPyC2_aligned_O-CH3_PM
_symmetry_space_group_name_H-M	'P1'
_cell_length_a	6.252800
_cell_length_b	12.523400
_cell_length_c	10.276800
_cell_angle_alpha	90.000000
_cell_angle_beta	91.269000
_cell_angle_gamma	90.000000
_symmetry_Int_Tables_number 1

loop_
_symmetry_equiv_pos_as_xyz
'x,y,z'

loop_
_atom_site_label
_atom_site_type_symbol
_atom_site_fract_x
_atom_site_fract_y
_atom_site_fract_z
_atom_site_charge
Ni1	Ni	0.494800	0.753960	0.839430	0.000000
O1	O	0.241300	0.349620	0.392900	0.000000
O2	O	0.754900	0.133080	0.370200	0.000000
O3	O	0.936900	0.352230	0.497300	0.000000
O4	O	0.066500	0.119800	0.474200	0.000000
N1	N	0.627900	0.842900	0.696200	0.000000
N2	N	0.361100	0.646100	0.715100	0.000000
C1	C	0.587800	0.959300	0.513400	0.000000
H1	H	0.500200	0.986200	0.444100	0.000000
C2	C	0.793200	0.998000	0.533700	0.000000
C3	C	0.917100	0.954600	0.635400	0.000000
C4	C	0.407700	0.519100	0.544100	0.000000
H2	H	0.495100	0.491000	0.477800	0.000000
C5	C	0.480300	0.603200	0.621700	0.000000
H3	H	0.619100	0.631300	0.607900	0.000000
C6	C	0.511500	0.880900	0.595000	0.000000
H4	H	0.372100	0.853000	0.579100	0.000000
C7	C	0.828500	0.877700	0.713700	0.000000
H5	H	0.913300	0.848300	0.782600	0.000000
C8	C	0.164500	0.604500	0.734600	0.000000
H6	H	0.079300	0.634600	0.800700	0.000000
C9	C	0.082600	0.520300	0.662600	0.000000
C10	C	0.207900	0.477000	0.564600	0.000000
C11	C	0.878000	0.089300	0.455000	0.000000
C12	C	0.122000	0.386200	0.481500	0.000000
O5	O	0.123414	0.989444	0.654873	0.000000
C13	C	0.262856	0.953529	0.751238	0.000000
H7	H	0.417502	0.996094	0.742822	0.000000
H8	H	0.197671	0.970436	0.848792	0.000000
H9	H	0.292174	0.866574	0.739835	0.000000
O6	O	0.884458	0.478638	0.684379	0.000000
C14	C	0.745595	0.513943	0.777649	0.000000
H10	H	0.597759	0.465037	0.772345	0.000000
H11	H	0.819295	0.504851	0.876382	0.000000
H12	H	0.701678	0.598693	0.759565	0.000000
Ni2	Ni	0.994800	0.246040	0.339430	0.000000
O7	O	0.741300	0.650380	0.892900	0.000000
O8	O	0.254900	0.866920	0.870200	0.000000
O9	O	0.436900	0.647770	0.997300	0.000000
O10	O	0.566500	0.880200	0.974200	0.000000
N3	N	0.127900	0.157100	0.196200	0.000000
N4	N	0.861100	0.353900	0.215100	0.000000
C15	C	0.087800	0.040700	0.013400	0.000000
H13	H	0.000200	0.013800	0.944100	0.000000
C16	C	0.293200	0.002000	0.033700	0.000000
C17	C	0.417100	0.045400	0.135400	0.000000
C18	C	0.907700	0.480900	0.044100	0.000000
H14	H	0.995100	0.509000	0.977800	0.000000
C19	C	0.980300	0.396800	0.121700	0.000000
H15	H	0.119100	0.368700	0.107900	0.000000
C20	C	0.011500	0.119100	0.095000	0.000000
H16	H	0.872100	0.147000	0.079100	0.000000
C21	C	0.328500	0.122300	0.213700	0.000000
H17	H	0.413300	0.151700	0.282600	0.000000
C22	C	0.664500	0.395500	0.234600	0.000000
H18	H	0.579300	0.365400	0.300700	0.000000
C23	C	0.582600	0.479700	0.162600	0.000000
C24	C	0.707900	0.523000	0.064600	0.000000
C25	C	0.378000	0.910700	0.955000	0.000000
C26	C	0.622000	0.613800	0.981500	0.000000
O11	O	0.623414	0.010556	0.154873	0.000000
C27	C	0.762856	0.046471	0.251238	0.000000
H19	H	0.917502	0.003906	0.242822	0.000000
H20	H	0.697671	0.029564	0.348792	0.000000
H21	H	0.792174	0.133426	0.239835	0.000000
O12	O	0.384458	0.521362	0.184379	0.000000
C28	C	0.245595	0.486057	0.277649	0.000000
H22	H	0.097759	0.534963	0.272345	0.000000
H23	H	0.319295	0.495149	0.376382	0.000000
H24	H	0.201678	0.401307	0.259565	0.000000
