data_NiPyC2_NiPyC2_aligned_CH2-CH3_NiPyC2_aligned_CH2-CH3_PM
_symmetry_space_group_name_H-M	'P1'
_cell_length_a	6.252800
_cell_length_b	12.523400
_cell_length_c	10.276800
_cell_angle_alpha	90.000000
_cell_angle_beta	91.269000
_cell_angle_gamma	90.000000
_symmetry_Int_Tables_number 1

loop_
_symmetry_equiv_pos_as_xyz
'x,y,z'

loop_
_atom_site_label
_atom_site_type_symbol
_atom_site_fract_x
_atom_site_fract_y
_atom_site_fract_z
Ni1	Ni	0.494800	0.753960	0.839430
O1	O	0.241300	0.349620	0.392900
O2	O	0.754900	0.133080	0.370200
O3	O	0.936900	0.352230	0.497300
O4	O	0.066500	0.119800	0.474200
N1	N	0.627900	0.842900	0.696200
N2	N	0.361100	0.646100	0.715100
C1	C	0.587800	0.959300	0.513400
H1	H	0.500200	0.986200	0.444100
C2	C	0.793200	0.998000	0.533700
C3	C	0.917100	0.954600	0.635400
H2	H	0.060200	0.977800	0.650500
C4	C	0.407700	0.519100	0.544100
H3	H	0.495100	0.491000	0.477800
C5	C	0.480300	0.603200	0.621700
H4	H	0.619100	0.631300	0.607900
C6	C	0.511500	0.880900	0.595000
C7	C	0.828500	0.877700	0.713700
H5	H	0.913300	0.848300	0.782600
C8	C	0.164500	0.604500	0.734600
C9	C	0.082600	0.520300	0.662600
H6	H	0.944600	0.492500	0.679100
C10	C	0.207900	0.477000	0.564600
C11	C	0.878000	0.089300	0.455000
C12	C	0.122000	0.386200	0.481500
C13	C	0.280300	0.834895	0.567952
C14	C	0.204818	0.748341	0.661563
H7	H	0.163375	0.901505	0.573010
H8	H	0.274388	0.799536	0.468766
H9	H	0.200000	0.779771	0.762533
H10	H	0.040660	0.722620	0.632416
H11	H	0.311365	0.677476	0.657958
C15	C	0.023163	0.654525	0.844393
C16	C	0.121887	0.747682	0.921184
H12	H	0.871856	0.684452	0.798874
H13	H	0.986369	0.591098	0.916122
H14	H	0.156070	0.815668	0.855408
H15	H	0.007267	0.775492	0.994934
H16	H	0.270949	0.722017	0.973031
Ni2	Ni	0.994800	0.246040	0.339430
O5	O	0.741300	0.650380	0.892900
O6	O	0.254900	0.866920	0.870200
O7	O	0.436900	0.647770	0.997300
O8	O	0.566500	0.880200	0.974200
N3	N	0.127900	0.157100	0.196200
N4	N	0.861100	0.353900	0.215100
C17	C	0.087800	0.040700	0.013400
H17	H	0.000200	0.013800	0.944100
C18	C	0.293200	0.002000	0.033700
C19	C	0.417100	0.045400	0.135400
H18	H	0.560200	0.022200	0.150500
C20	C	0.907700	0.480900	0.044100
H19	H	0.995100	0.509000	0.977800
C21	C	0.980300	0.396800	0.121700
H20	H	0.119100	0.368700	0.107900
C22	C	0.011500	0.119100	0.095000
C23	C	0.328500	0.122300	0.213700
H21	H	0.413300	0.151700	0.282600
C24	C	0.664500	0.395500	0.234600
C25	C	0.582600	0.479700	0.162600
H22	H	0.444600	0.507500	0.179100
C26	C	0.707900	0.523000	0.064600
C27	C	0.378000	0.910700	0.955000
C28	C	0.622000	0.613800	0.981500
C29	C	0.780300	0.165105	0.067952
C30	C	0.704818	0.251659	0.161563
H23	H	0.663375	0.098495	0.073010
H24	H	0.774388	0.200464	0.968766
H25	H	0.700000	0.220229	0.262533
H26	H	0.540660	0.277380	0.132416
H27	H	0.811365	0.322524	0.157958
C31	C	0.523163	0.345475	0.344393
C32	C	0.621887	0.252318	0.421184
H28	H	0.371856	0.315548	0.298874
H29	H	0.486369	0.408902	0.416122
H30	H	0.656070	0.184332	0.355408
H31	H	0.507267	0.224508	0.494934
H32	H	0.770949	0.277983	0.473031
