data_NiPyC2_NiPyC2_aligned_CH2-CH2-CH3_NiPyC2_aligned_CH2-CH2-CH3_PM
_symmetry_space_group_name_H-M	'P1'
_cell_length_a	6.252800
_cell_length_b	12.523400
_cell_length_c	10.276800
_cell_angle_alpha	90.000000
_cell_angle_beta	91.269000
_cell_angle_gamma	90.000000
_symmetry_Int_Tables_number 1

loop_
_symmetry_equiv_pos_as_xyz
'x,y,z'

loop_
_atom_site_label
_atom_site_type_symbol
_atom_site_fract_x
_atom_site_fract_y
_atom_site_fract_z
Ni1	Ni	0.494800	0.753960	0.839430
O1	O	0.241300	0.349620	0.392900
O2	O	0.754900	0.133080	0.370200
O3	O	0.936900	0.352230	0.497300
O4	O	0.066500	0.119800	0.474200
N1	N	0.627900	0.842900	0.696200
N2	N	0.361100	0.646100	0.715100
C1	C	0.587800	0.959300	0.513400
H1	H	0.500200	0.986200	0.444100
C2	C	0.793200	0.998000	0.533700
C3	C	0.917100	0.954600	0.635400
C4	C	0.407700	0.519100	0.544100
H2	H	0.495100	0.491000	0.477800
C5	C	0.480300	0.603200	0.621700
H3	H	0.619100	0.631300	0.607900
C6	C	0.511500	0.880900	0.595000
H4	H	0.372100	0.853000	0.579100
C7	C	0.828500	0.877700	0.713700
H5	H	0.913300	0.848300	0.782600
C8	C	0.164500	0.604500	0.734600
H6	H	0.079300	0.634600	0.800700
C9	C	0.082600	0.520300	0.662600
C10	C	0.207900	0.477000	0.564600
C11	C	0.878000	0.089300	0.455000
C12	C	0.122000	0.386200	0.481500
C13	C	0.150015	0.991990	0.660105
C14	C	0.272281	0.939093	0.774549
H7	H	0.241516	0.975819	0.570692
H8	H	0.147324	0.079341	0.679293
C15	C	0.499444	0.983011	0.788218
H9	H	0.188185	0.954943	0.866770
H10	H	0.282314	0.851488	0.758235
H11	H	0.495840	0.070410	0.806526
H12	H	0.583777	0.943511	0.871370
H13	H	0.589690	0.967261	0.698311
C16	C	0.858671	0.475328	0.689766
C17	C	0.735308	0.529162	0.799795
H14	H	0.759357	0.483078	0.599185
H15	H	0.876587	0.389543	0.715620
C18	C	0.516756	0.477206	0.816555
H16	H	0.827361	0.521586	0.893144
H17	H	0.710209	0.615061	0.776781
H18	H	0.535536	0.391362	0.841536
H19	H	0.431441	0.517559	0.896423
H20	H	0.418730	0.484560	0.725516
Ni2	Ni	0.994800	0.246040	0.339430
O5	O	0.741300	0.650380	0.892900
O6	O	0.254900	0.866920	0.870200
O7	O	0.436900	0.647770	0.997300
O8	O	0.566500	0.880200	0.974200
N3	N	0.127900	0.157100	0.196200
N4	N	0.861100	0.353900	0.215100
C19	C	0.087800	0.040700	0.013400
H21	H	0.000200	0.013800	0.944100
C20	C	0.293200	0.002000	0.033700
C21	C	0.417100	0.045400	0.135400
C22	C	0.907700	0.480900	0.044100
H22	H	0.995100	0.509000	0.977800
C23	C	0.980300	0.396800	0.121700
H23	H	0.119100	0.368700	0.107900
C24	C	0.011500	0.119100	0.095000
H24	H	0.872100	0.147000	0.079100
C25	C	0.328500	0.122300	0.213700
H25	H	0.413300	0.151700	0.282600
C26	C	0.664500	0.395500	0.234600
H26	H	0.579300	0.365400	0.300700
C27	C	0.582600	0.479700	0.162600
C28	C	0.707900	0.523000	0.064600
C29	C	0.378000	0.910700	0.955000
C30	C	0.622000	0.613800	0.981500
C31	C	0.650015	0.008010	0.160105
C32	C	0.772281	0.060907	0.274549
H27	H	0.741516	0.024181	0.070692
H28	H	0.647324	0.920659	0.179293
C33	C	0.999444	0.016989	0.288218
H29	H	0.688185	0.045057	0.366770
H30	H	0.782314	0.148512	0.258235
H31	H	0.995840	0.929590	0.306526
H32	H	0.083777	0.056489	0.371370
H33	H	0.089690	0.032739	0.198311
C34	C	0.358671	0.524672	0.189766
C35	C	0.235308	0.470838	0.299795
H34	H	0.259357	0.516922	0.099185
H35	H	0.376587	0.610457	0.215620
C36	C	0.016756	0.522794	0.316555
H36	H	0.327361	0.478414	0.393144
H37	H	0.210209	0.384939	0.276781
H38	H	0.035536	0.608638	0.341536
H39	H	0.931441	0.482441	0.396423
H40	H	0.918730	0.515440	0.225516
