data_NiPyC2_NiPyC2_aligned_O-CH2-CH2-CH3_NiPyC2_aligned_O-CH2-CH2-CH3_PM
_symmetry_space_group_name_H-M	'P1'
_cell_length_a	6.252800
_cell_length_b	12.523400
_cell_length_c	10.276800
_cell_angle_alpha	90.000000
_cell_angle_beta	91.269000
_cell_angle_gamma	90.000000
_symmetry_Int_Tables_number 1

loop_
_symmetry_equiv_pos_as_xyz
'x,y,z'

loop_
_atom_site_label
_atom_site_type_symbol
_atom_site_fract_x
_atom_site_fract_y
_atom_site_fract_z
Ni1	Ni	0.494800	0.753960	0.839430
O1	O	0.241300	0.349620	0.392900
O2	O	0.754900	0.133080	0.370200
O3	O	0.936900	0.352230	0.497300
O4	O	0.066500	0.119800	0.474200
N1	N	0.627900	0.842900	0.696200
N2	N	0.361100	0.646100	0.715100
C1	C	0.587800	0.959300	0.513400
C2	C	0.793200	0.998000	0.533700
C3	C	0.917100	0.954600	0.635400
H1	H	0.060200	0.977800	0.650500
C4	C	0.407700	0.519100	0.544100
H2	H	0.495100	0.491000	0.477800
C5	C	0.480300	0.603200	0.621700
H3	H	0.619100	0.631300	0.607900
C6	C	0.511500	0.880900	0.595000
H4	H	0.372100	0.853000	0.579100
C7	C	0.828500	0.877700	0.713700
H5	H	0.913300	0.848300	0.782600
C8	C	0.164500	0.604500	0.734600
H6	H	0.079300	0.634600	0.800700
C9	C	0.082600	0.520300	0.662600
C10	C	0.207900	0.477000	0.564600
C11	C	0.878000	0.089300	0.455000
C12	C	0.122000	0.386200	0.481500
O5	O	0.463530	0.999377	0.412718
C13	C	0.256774	0.968272	0.381334
C14	C	0.175849	0.031968	0.263432
H7	H	0.151466	0.983942	0.465078
H8	H	0.254029	0.881646	0.357334
C15	C	0.947430	0.000443	0.224797
H9	H	0.281860	0.017040	0.179920
H10	H	0.180012	0.118617	0.286909
H11	H	0.939917	0.914367	0.198965
H12	H	0.893262	0.047996	0.139035
H13	H	0.837818	0.016189	0.306214
O6	O	0.884529	0.478610	0.684321
C16	C	0.745163	0.513743	0.777587
C17	C	0.541382	0.446528	0.770508
H14	H	0.703854	0.598938	0.759393
H15	H	0.821226	0.505283	0.875943
C18	C	0.381824	0.482306	0.871918
H16	H	0.582560	0.361246	0.787683
H17	H	0.466010	0.454246	0.671954
H18	H	0.452599	0.473764	0.971480
H19	H	0.235752	0.432069	0.864355
H20	H	0.335766	0.566991	0.855472
Ni2	Ni	0.994800	0.246040	0.339430
O7	O	0.741300	0.650380	0.892900
O8	O	0.254900	0.866920	0.870200
O9	O	0.436900	0.647770	0.997300
O10	O	0.566500	0.880200	0.974200
N3	N	0.127900	0.157100	0.196200
N4	N	0.861100	0.353900	0.215100
C19	C	0.087800	0.040700	0.013400
C20	C	0.293200	0.002000	0.033700
C21	C	0.417100	0.045400	0.135400
H21	H	0.560200	0.022200	0.150500
C22	C	0.907700	0.480900	0.044100
H22	H	0.995100	0.509000	0.977800
C23	C	0.980300	0.396800	0.121700
H23	H	0.119100	0.368700	0.107900
C24	C	0.011500	0.119100	0.095000
H24	H	0.872100	0.147000	0.079100
C25	C	0.328500	0.122300	0.213700
H25	H	0.413300	0.151700	0.282600
C26	C	0.664500	0.395500	0.234600
H26	H	0.579300	0.365400	0.300700
C27	C	0.582600	0.479700	0.162600
C28	C	0.707900	0.523000	0.064600
C29	C	0.378000	0.910700	0.955000
C30	C	0.622000	0.613800	0.981500
O11	O	0.963530	0.000623	0.912718
C31	C	0.756774	0.031728	0.881334
C32	C	0.675849	0.968032	0.763432
H27	H	0.651466	0.016058	0.965078
H28	H	0.754029	0.118354	0.857334
C33	C	0.447430	0.999557	0.724797
H29	H	0.781860	0.982960	0.679920
H30	H	0.680012	0.881383	0.786909
H31	H	0.439917	0.085633	0.698965
H32	H	0.393262	0.952004	0.639035
H33	H	0.337818	0.983811	0.806214
O12	O	0.384529	0.521390	0.184321
C34	C	0.245163	0.486257	0.277587
C35	C	0.041382	0.553472	0.270508
H34	H	0.203854	0.401062	0.259393
H35	H	0.321226	0.494717	0.375943
C36	C	0.881824	0.517694	0.371918
H36	H	0.082560	0.638754	0.287683
H37	H	0.966010	0.545754	0.171954
H38	H	0.952599	0.526236	0.471480
H39	H	0.735752	0.567931	0.364355
H40	H	0.835766	0.433009	0.355472
