data_NiPyC2_relax_NiPyC2_relax_aligned_NH2_NiPyC2_relax_aligned_NH2_NiPyC2_relax_aligned_NH2_NiPyC2_relax_aligned_NH2_PM
_symmetry_space_group_name_H-M	'P1'
_cell_length_a	6.252800
_cell_length_b	12.523400
_cell_length_c	10.276800
_cell_angle_alpha	90.000000
_cell_angle_beta	91.269000
_cell_angle_gamma	90.000000
_symmetry_Int_Tables_number 1

loop_
_symmetry_equiv_pos_as_xyz
'x,y,z'

loop_
_atom_site_label
_atom_site_type_symbol
_atom_site_fract_x
_atom_site_fract_y
_atom_site_fract_z
Ni1	Ni	0.494004	0.751486	0.836326
Ni2	Ni	0.999945	0.247999	0.339178
O1	O	0.245557	0.347689	0.382873
O2	O	0.742416	0.650977	0.881292
O3	O	0.755261	0.147507	0.377178
O4	O	0.250196	0.852352	0.876261
O5	O	0.946138	0.356160	0.482994
O6	O	0.442275	0.641415	0.979877
O7	O	0.057679	0.135158	0.481078
O8	O	0.553372	0.862758	0.979399
N1	N	0.616875	0.851253	0.704828
N2	N	0.121459	0.148857	0.206052
N3	N	0.373085	0.650310	0.705838
N4	N	0.877620	0.350928	0.208041
C1	C	0.576425	0.970050	0.521984
C2	C	0.076758	0.031106	0.022308
H1	H	0.474249	0.999575	0.443113
H2	H	0.973076	0.002692	0.943499
C3	C	0.781269	0.011770	0.546492
C4	C	0.280489	0.987744	0.046146
C5	C	0.903830	0.970202	0.650371
C6	C	0.405041	0.028353	0.149893
C7	C	0.416363	0.529704	0.526384
C8	C	0.917091	0.471409	0.027904
H3	H	0.517401	0.500895	0.449282
H4	H	0.017282	0.500397	0.950548
C9	C	0.490274	0.613331	0.606435
C10	C	0.993638	0.388677	0.108617
H5	H	0.645282	0.650506	0.592635
H6	H	0.149937	0.352851	0.095028
C11	C	0.498952	0.889206	0.603203
C12	C	0.002139	0.112232	0.104247
H7	H	0.340308	0.855123	0.588560
H8	H	0.844645	0.147732	0.089886
C13	C	0.815954	0.889383	0.727552
C14	C	0.319869	0.109547	0.227812
H9	H	0.906740	0.855173	0.808761
H10	H	0.412479	0.143103	0.308797
C15	C	0.177724	0.608983	0.727352
C16	C	0.681780	0.391633	0.229394
H11	H	0.087458	0.642944	0.806608
H12	H	0.592757	0.357526	0.309051
C17	C	0.093850	0.525079	0.651312
C18	C	0.595316	0.474711	0.152754
C19	C	0.216328	0.484270	0.550116
C20	C	0.715665	0.515656	0.050638
C21	C	0.866619	0.099319	0.466621
C22	C	0.363035	0.899720	0.965672
C23	C	0.134755	0.394474	0.470676
C24	C	0.632086	0.604172	0.969107
N5	N	1.116345	1.004528	0.684616
H13	H	1.196894	0.970159	0.762554
H14	H	1.195884	1.062585	0.635448
N6	N	0.616977	-0.007344	0.183257
H15	H	0.699067	0.026327	0.261071
H16	H	0.694630	-0.065743	0.133562
N7	N	-0.114314	0.486921	0.683597
H17	H	-0.194945	0.520965	0.759546
H18	H	-0.190648	0.426369	0.634931
N8	N	0.386618	0.511896	0.185572
H19	H	0.307586	0.477860	0.262159
H20	H	0.308415	0.571734	0.136662

loop_
_geom_bond_atom_site_label_1
_geom_bond_atom_site_label_2
_geom_bond_distance
Ni1	O2	0.27172
Ni1	O4	0.26685
Ni1	O6	0.18814
Ni1	O8	0.19072
Ni1	N1	0.20577
Ni1	N3	0.20466
Ni2	O1	0.26865
Ni2	O3	0.26723
Ni2	O5	0.18782
Ni2	O7	0.19027
Ni2	N2	0.20571
Ni2	N4	0.20677
O1	C23	0.14891
O2	C24	0.14858
O3	C21	0.15074
O4	C22	0.15156
O5	C23	0.19286
O6	C24	0.19373
O7	C21	0.19493
O8	C22	0.19438
N1	C11	0.16023
N1	C13	0.20397
N2	C12	0.16107
N2	C14	0.20343
N3	C9	0.15806
N3	C15	0.20084
N4	C10	0.15739
N4	C16	0.20116
C1	H1	0.13241
C1	C3	0.21048
C1	C11	0.13833
C2	H2	0.13330
C2	C4	0.20965
C2	C12	0.13734
C3	C5	0.16595
C3	C21	0.14604
C4	C6	0.16711
C4	C22	0.14505
C5	C13	0.14216
C5	N5	0.21798
C6	C14	0.14113
C6	N6	0.21750
C7	H3	0.13032
C7	C9	0.13735
C7	C19	0.20650
C8	H4	0.12986
C8	C10	0.13863
C8	C20	0.20748
C9	H5	0.16000
C10	H6	0.16093
C11	H7	0.16292
C12	H8	0.16208
C13	H9	0.12652
C14	H10	0.12752
C15	H11	0.12483
C15	C17	0.14091
C16	H12	0.12423
C16	C18	0.14231
C17	C19	0.16403
C17	N7	0.21408
C18	C20	0.16306
C18	N8	0.21451
C19	C23	0.14501
C20	C24	0.14652
N5	H13	0.11723
N5	H14	0.11007
N6	H15	0.11802
N6	H16	0.10913
N7	H17	0.11588
N7	H18	0.10891
N8	H19	0.11520
N8	H20	0.10995
