data_NiPyC2_relax_NiPyC2_relax_aligned_O-CH2-CH2-CH3_NiPyC2_relax_aligned_O-CH2-CH2-CH3_NiPyC2_relax_aligned_O-CH2-CH2-CH3_NiPyC2_relax_aligned_O-CH2-CH2-CH3_PM
_symmetry_space_group_name_H-M	'P1'
_cell_length_a	6.252800
_cell_length_b	12.523400
_cell_length_c	10.276800
_cell_angle_alpha	90.000000
_cell_angle_beta	91.269000
_cell_angle_gamma	90.000000
_symmetry_Int_Tables_number 1

loop_
_symmetry_equiv_pos_as_xyz
'x,y,z'

loop_
_atom_site_label
_atom_site_type_symbol
_atom_site_fract_x
_atom_site_fract_y
_atom_site_fract_z
Ni1	Ni	0.494004	0.751486	0.836326
Ni2	Ni	0.999945	0.247999	0.339178
O1	O	0.245557	0.347689	0.382873
O2	O	0.742416	0.650977	0.881292
O3	O	0.755261	0.147507	0.377178
O4	O	0.250196	0.852352	0.876261
O5	O	0.946138	0.356160	0.482994
O6	O	0.442275	0.641415	0.979877
O7	O	0.057679	0.135158	0.481078
O8	O	0.553372	0.862758	0.979399
N1	N	0.616875	0.851253	0.704828
N2	N	0.121459	0.148857	0.206052
N3	N	0.373085	0.650310	0.705838
N4	N	0.877620	0.350928	0.208041
C1	C	0.576425	0.970050	0.521984
C2	C	0.076758	0.031106	0.022308
H1	H	0.474249	0.999575	0.443113
H2	H	0.973076	0.002692	0.943499
C3	C	0.781269	0.011770	0.546492
C4	C	0.280489	0.987744	0.046146
C5	C	0.903830	0.970202	0.650371
C6	C	0.405041	0.028353	0.149893
H3	H	0.064125	0.998805	0.673520
H4	H	0.564681	0.998665	0.172602
C7	C	0.416363	0.529704	0.526384
C8	C	0.917091	0.471409	0.027904
H5	H	0.517401	0.500895	0.449282
H6	H	0.017282	0.500397	0.950548
C9	C	0.490274	0.613331	0.606435
C10	C	0.993638	0.388677	0.108617
H7	H	0.149937	0.352851	0.095028
C11	C	0.498952	0.889206	0.603203
C12	C	0.002139	0.112232	0.104247
H8	H	0.844645	0.147732	0.089886
C13	C	0.815954	0.889383	0.727552
C14	C	0.319869	0.109547	0.227812
H9	H	0.906740	0.855173	0.808761
C15	C	0.177724	0.608983	0.727352
C16	C	0.681780	0.391633	0.229394
H10	H	0.087458	0.642944	0.806608
C17	C	0.093850	0.525079	0.651312
C18	C	0.595316	0.474711	0.152754
H11	H	0.937343	0.493231	0.673502
H12	H	0.437905	0.505201	0.175264
C19	C	0.216328	0.484270	0.550116
C20	C	0.715665	0.515656	0.050638
C21	C	0.866619	0.099319	0.466621
C22	C	0.363035	0.899720	0.965672
C23	C	0.134755	0.394474	0.470676
C24	C	0.632086	0.604172	0.969107
O9	O	0.295045	0.849539	0.574783
C25	C	0.194483	0.770317	0.644210
C26	C	-0.026304	0.749114	0.583023
H13	H	0.176145	0.796396	0.746853
H14	H	0.291065	0.695767	0.641555
C27	C	-0.144199	0.661954	0.656411
H15	H	-0.008383	0.723826	0.480136
H16	H	-0.122496	0.823747	0.584698
H17	H	-0.052472	0.586025	0.654356
H18	H	-0.303739	0.648398	0.609730
H19	H	-0.166861	0.686188	0.759175
O10	O	0.449976	0.148152	0.329426
C28	C	0.392653	0.227476	0.415327
C29	C	0.577329	0.247288	0.512107
H20	H	0.248847	0.202103	0.469181
H21	H	0.357185	0.302404	0.360832
C30	C	0.521764	0.334507	0.609373
H22	H	0.721654	0.271866	0.458377
H23	H	0.614071	0.172271	0.565967
H24	H	0.487517	0.410797	0.557840
H25	H	0.658797	0.347039	0.678247
H26	H	0.379669	0.310962	0.665692
O11	O	0.689392	0.656866	0.579505
C31	C	0.785905	0.739240	0.648252
C32	C	1.002257	0.764163	0.589110
H27	H	0.682898	0.811611	0.642752
H28	H	0.810606	0.715195	0.751717
C33	C	1.115581	0.854892	0.661840
H29	H	1.104839	0.691686	0.593620
H30	H	0.978026	0.787427	0.485423
H31	H	1.144457	0.832777	0.765431
H32	H	1.271967	0.871100	0.616676
H33	H	1.017335	0.928752	0.656974
O12	O	0.555868	0.352620	0.329290
C34	C	0.615052	0.271505	0.413785
C35	C	0.434948	0.251842	0.508912
H34	H	0.762706	0.294783	0.469151
H35	H	0.644876	0.197123	0.357837
C36	C	0.492714	0.162676	0.604582
H36	H	0.286811	0.229361	0.453684
H37	H	0.403819	0.326334	0.564218
H38	H	0.521430	0.086896	0.551558
H39	H	0.358990	0.150298	0.672277
H40	H	0.638726	0.184104	0.662362

loop_
_geom_bond_atom_site_label_1
_geom_bond_atom_site_label_2
_geom_bond_distance
Ni1	O2	0.27172
Ni1	O4	0.26685
Ni1	O6	0.18814
Ni1	O8	0.19072
Ni1	N1	0.20577
Ni1	N3	0.20466
Ni2	O1	0.26865
Ni2	O3	0.26723
Ni2	O5	0.18782
Ni2	O7	0.19027
Ni2	N2	0.20571
Ni2	N4	0.20677
O1	C23	0.14891
O2	C24	0.14858
O3	C21	0.15074
O4	C22	0.15156
O5	C23	0.19286
O6	C24	0.19373
O7	C21	0.19493
O8	C22	0.19438
N1	C11	0.16023
N1	C13	0.20397
N2	C12	0.16107
N2	C14	0.20343
N3	C9	0.15806
N3	C15	0.20084
N4	C10	0.15739
N4	C16	0.20116
C1	H1	0.13241
C1	C3	0.21048
C1	C11	0.13833
C2	H2	0.13330
C2	C4	0.20965
C2	C12	0.13734
C3	C5	0.16595
C3	C21	0.14604
C4	C6	0.16711
C4	C22	0.14505
C5	H3	0.16446
C5	C13	0.14216
C6	H4	0.16396
C6	C14	0.14113
C7	H5	0.13032
C7	C9	0.13735
C7	C19	0.20650
C8	H6	0.12986
C8	C10	0.13863
C8	C20	0.20748
C9	O11	0.20559
C10	H7	0.16093
C11	O9	0.20966
C12	H8	0.16208
C13	H9	0.12652
C14	O10	0.16954
C15	H10	0.12483
C15	C17	0.14091
C16	C18	0.14231
C16	O12	0.16539
C17	H11	0.16125
C17	C19	0.16403
C18	H12	0.16191
C18	C20	0.16306
C19	C23	0.14501
C20	C24	0.14652
O9	C25	0.14563
C25	C26	0.23009
C25	H13	0.10748
C25	H14	0.12204
C26	C27	0.16396
C26	H15	0.10745
C26	H16	0.12176
C27	H17	0.11909
C27	H18	0.16678
C27	H19	0.10799
O10	C28	0.13022
C28	C29	0.20944
C28	H20	0.15564
C28	H21	0.09921
C29	C30	0.14197
C29	H22	0.15595
C29	H23	0.09939
C30	H24	0.09823
C30	H25	0.15388
C30	H26	0.15465
O11	C31	0.14431
C31	C32	0.22567
C31	H27	0.12601
C31	H28	0.10906
C32	C33	0.16237
C32	H29	0.12568
C32	H30	0.10899
C33	H31	0.10979
C33	H32	0.16358
C33	H33	0.12301
O12	C34	0.13123
C34	C35	0.20463
C34	H34	0.15940
C34	H35	0.09774
C35	C36	0.14297
C35	H36	0.15969
C35	H37	0.09786
C36	H38	0.09684
