data_NiPyC2_relax_NiPyC2_relax_aligned_C-3CH3_NiPyC2_relax_aligned_C-3CH3_NiPyC2_relax_aligned_C-3CH3_NiPyC2_relax_aligned_C-3CH3_PM
_symmetry_space_group_name_H-M	'P1'
_cell_length_a	6.252800
_cell_length_b	12.523400
_cell_length_c	10.276800
_cell_angle_alpha	90.000000
_cell_angle_beta	91.269000
_cell_angle_gamma	90.000000
_symmetry_Int_Tables_number 1

loop_
_symmetry_equiv_pos_as_xyz
'x,y,z'

loop_
_atom_site_label
_atom_site_type_symbol
_atom_site_fract_x
_atom_site_fract_y
_atom_site_fract_z
Ni1	Ni	0.494004	0.751486	0.836326
Ni2	Ni	0.999945	0.247999	0.339178
O1	O	0.245557	0.347689	0.382873
O2	O	0.742416	0.650977	0.881292
O3	O	0.755261	0.147507	0.377178
O4	O	0.250196	0.852352	0.876261
O5	O	0.946138	0.356160	0.482994
O6	O	0.442275	0.641415	0.979877
O7	O	0.057679	0.135158	0.481078
O8	O	0.553372	0.862758	0.979399
N1	N	0.616875	0.851253	0.704828
N2	N	0.121459	0.148857	0.206052
N3	N	0.373085	0.650310	0.705838
N4	N	0.877620	0.350928	0.208041
C1	C	0.576425	0.970050	0.521984
C2	C	0.076758	0.031106	0.022308
H1	H	0.474249	0.999575	0.443113
C3	C	0.781269	0.011770	0.546492
C4	C	0.280489	0.987744	0.046146
C5	C	0.903830	0.970202	0.650371
C6	C	0.405041	0.028353	0.149893
H2	H	0.564681	0.998665	0.172602
C7	C	0.416363	0.529704	0.526384
C8	C	0.917091	0.471409	0.027904
C9	C	0.490274	0.613331	0.606435
C10	C	0.993638	0.388677	0.108617
H3	H	0.645282	0.650506	0.592635
H4	H	0.149937	0.352851	0.095028
C11	C	0.498952	0.889206	0.603203
C12	C	0.002139	0.112232	0.104247
H5	H	0.340308	0.855123	0.588560
H6	H	0.844645	0.147732	0.089886
C13	C	0.815954	0.889383	0.727552
C14	C	0.319869	0.109547	0.227812
H7	H	0.906740	0.855173	0.808761
H8	H	0.412479	0.143103	0.308797
C15	C	0.177724	0.608983	0.727352
C16	C	0.681780	0.391633	0.229394
H9	H	0.087458	0.642944	0.806608
H10	H	0.592757	0.357526	0.309051
C17	C	0.093850	0.525079	0.651312
C18	C	0.595316	0.474711	0.152754
H11	H	0.937343	0.493231	0.673502
H12	H	0.437905	0.505201	0.175264
C19	C	0.216328	0.484270	0.550116
C20	C	0.715665	0.515656	0.050638
C21	C	0.866619	0.099319	0.466621
C22	C	0.363035	0.899720	0.965672
C23	C	0.134755	0.394474	0.470676
C24	C	0.632086	0.604172	0.969107
C_fg1	C_fg	0.141153	0.007794	0.689631
C_fg2	C_fg	0.240128	0.947866	0.809667
H_fg1	H_fg	0.253403	0.860642	0.791208
H_fg2	H_fg	0.404760	0.976966	0.832760
H_fg3	H_fg	0.144986	0.960976	0.898417
C_fg3	C_fg	0.141278	0.126739	0.731882
H_fg4	H_fg	0.041265	0.136519	0.819203
H_fg5	H_fg	0.306231	0.153506	0.758015
H_fg6	H_fg	0.076927	0.184381	0.661297
C_fg4	C_fg	0.296772	0.982833	0.578112
H_fg7	H_fg	0.302045	0.895175	0.561320
H_fg8	H_fg	0.257470	0.017292	0.482757
H_fg9	H_fg	0.461512	0.009797	0.604456
C_fg5	C_fg	0.917238	0.995073	0.906382
C_fg6	C_fg	0.700279	0.056645	0.902381
H_fg10	H_fg	0.609324	0.043885	0.992848
H_fg11	H_fg	0.595734	0.028621	0.820278
H_fg12	H_fg	0.724504	0.143751	0.887683
C_fg7	C_fg	0.016523	0.019779	0.772661
H_fg13	H_fg	0.041691	0.107294	0.763127
H_fg14	H_fg	0.907205	0.993922	0.691886
H_fg15	H_fg	0.172637	0.984215	0.754013
C_fg8	C_fg	0.851328	0.876543	0.923500
H_fg16	H_fg	0.764641	0.867076	0.016095
H_fg17	H_fg	0.980830	0.817906	0.929150
H_fg18	H_fg	0.742236	0.850882	0.842517
C_fg9	C_fg	0.571789	0.493441	0.412847
C_fg10	C_fg	0.785175	0.557795	0.408652
H_fg19	H_fg	0.755490	0.644216	0.391124
H_fg20	H_fg	0.887047	0.529495	0.328215
H_fg21	H_fg	0.881405	0.548127	0.500199
C_fg11	C_fg	0.644982	0.376226	0.434067
H_fg22	H_fg	0.736876	0.369834	0.527610
H_fg23	H_fg	0.751328	0.350372	0.354715
H_fg24	H_fg	0.518963	0.316010	0.440496
C_fg12	C_fg	0.464379	0.514044	0.277625
H_fg25	H_fg	0.433993	0.600967	0.265243
H_fg26	H_fg	0.309268	0.476029	0.258853
H_fg27	H_fg	0.570973	0.488001	0.198487
C_fg13	C_fg	0.072231	0.508263	0.914240
C_fg14	C_fg	0.287534	0.445459	0.910952
H_fg28	H_fg	0.383009	0.456296	0.002590
H_fg29	H_fg	0.388974	0.474092	0.830483
H_fg30	H_fg	0.260499	0.358743	0.894065
C_fg15	C_fg	0.966128	0.486188	0.778998
H_fg31	H_fg	0.938380	0.398991	0.767257
H_fg32	H_fg	0.072349	0.512606	0.699855
H_fg33	H_fg	0.809993	0.522967	0.759639
C_fg16	C_fg	0.141836	0.626107	0.934655
H_fg34	H_fg	0.233060	0.633646	0.028305
H_fg35	H_fg	0.014007	0.685425	0.940370
H_fg36	H_fg	0.247817	0.652333	0.855297

loop_
_geom_bond_atom_site_label_1
_geom_bond_atom_site_label_2
_geom_bond_distance
Ni1	O2	0.27172
Ni1	O4	0.26685
Ni1	O6	0.18814
Ni1	O8	0.19072
Ni1	N1	0.20577
Ni1	N3	0.20466
Ni2	O1	0.26865
Ni2	O3	0.26723
Ni2	O5	0.18782
Ni2	O7	0.19027
Ni2	N2	0.20571
Ni2	N4	0.20677
O1	C23	0.14891
O2	C24	0.14858
O3	C21	0.15074
O4	C22	0.15156
O5	C23	0.19286
O6	C24	0.19373
O7	C21	0.19493
O8	C22	0.19438
N1	C11	0.16023
N1	C13	0.20397
N2	C12	0.16107
N2	C14	0.20343
N3	C9	0.15806
N3	C15	0.20084
N4	C10	0.15739
N4	C16	0.20116
C1	H1	0.13241
C1	C3	0.21048
C1	C11	0.13833
C2	C4	0.20965
C2	C12	0.13734
C2	C_fg5	0.20046
C3	C5	0.16595
C3	C21	0.14604
C4	C6	0.16711
C4	C22	0.14505
C5	C13	0.14216
C5	C_fg1	0.24347
C6	H2	0.16396
C6	C14	0.14113
C7	C9	0.13735
C7	C19	0.20650
C7	C_fg9	0.19586
C8	C10	0.13863
C8	C20	0.20748
C8	C_fg13	0.19582
C9	H3	0.16000
C10	H4	0.16093
C11	H5	0.16292
C12	H6	0.16208
C13	H7	0.12652
C14	H8	0.12752
C15	H9	0.12483
C15	C17	0.14091
C16	H10	0.12423
C16	C18	0.14231
C17	H11	0.16125
C17	C19	0.16403
C18	H12	0.16191
C18	C20	0.16306
C19	C23	0.14501
C20	C24	0.14652
C_fg1	C_fg2	0.16672
C_fg1	C_fg3	0.12623
C_fg1	C_fg4	0.19307
C_fg2	H_fg1	0.09014
C_fg2	H_fg2	0.16877
C_fg2	H_fg3	0.13077
H_fg1	H_fg2	0.19536
H_fg1	H_fg3	0.18252
H_fg2	H_fg3	0.26842
C_fg3	H_fg4	0.13313
C_fg3	H_fg5	0.16914
C_fg3	H_fg6	0.11156
H_fg4	H_fg5	0.27247
H_fg4	H_fg6	0.16881
H_fg5	H_fg6	0.25077
C_fg4	H_fg7	0.08941
C_fg4	H_fg8	0.10874
C_fg4	H_fg9	0.16900
H_fg7	H_fg8	0.15189
H_fg7	H_fg9	0.20107
H_fg8	H_fg9	0.23770
C_fg5	C_fg6	0.22556
C_fg5	C_fg7	0.16837
C_fg5	C_fg8	0.13670
C_fg6	H_fg10	0.12892
C_fg6	H_fg11	0.13585
C_fg6	H_fg12	0.09160
H_fg10	H_fg11	0.17378
H_fg10	H_fg12	0.18520
H_fg11	H_fg12	0.18542
C_fg7	H_fg13	0.09156
C_fg7	H_fg14	0.13836
C_fg7	H_fg15	0.16120
H_fg13	H_fg14	0.18978
H_fg13	H_fg15	0.17994
H_fg14	H_fg15	0.27278
C_fg8	H_fg16	0.12719
C_fg8	H_fg17	0.14227
C_fg8	H_fg18	0.13827
H_fg16	H_fg17	0.23815
H_fg16	H_fg18	0.17577
H_fg17	H_fg18	0.25597
C_fg9	C_fg10	0.22292
C_fg9	C_fg11	0.13981
C_fg9	C_fg12	0.17391
C_fg10	H_fg19	0.09304
C_fg10	H_fg20	0.13285
C_fg10	H_fg21	0.13317
H_fg19	H_fg20	0.18554
H_fg19	H_fg21	0.19232
H_fg20	H_fg21	0.17308
C_fg11	H_fg22	0.13128
C_fg11	H_fg23	0.13518
C_fg11	H_fg24	0.13981
H_fg22	H_fg23	0.17459
H_fg22	H_fg24	0.24077
H_fg23	H_fg24	0.25006
C_fg12	H_fg25	0.09291
C_fg12	H_fg26	0.16080
C_fg12	H_fg27	0.13529
H_fg25	H_fg26	0.17665
H_fg25	H_fg27	0.18969
H_fg26	H_fg27	0.26884
C_fg13	C_fg14	0.22430
C_fg14	H_fg28	0.13278
