data_NiPyC2_relax_NiPyC2_relax_aligned_CH2-CH2-CH3_NiPyC2_relax_aligned_CH2-CH2-CH3_NiPyC2_relax_aligned_CH2-CH2-CH3_NiPyC2_relax_aligned_CH2-CH2-CH3_PM
_symmetry_space_group_name_H-M	'P1'
_cell_length_a	6.252800
_cell_length_b	12.523400
_cell_length_c	10.276800
_cell_angle_alpha	90.000000
_cell_angle_beta	91.269000
_cell_angle_gamma	90.000000
_symmetry_Int_Tables_number 1

loop_
_symmetry_equiv_pos_as_xyz
'x,y,z'

loop_
_atom_site_label
_atom_site_type_symbol
_atom_site_fract_x
_atom_site_fract_y
_atom_site_fract_z
Ni1	Ni	0.494004	0.751486	0.836326
Ni2	Ni	0.999945	0.247999	0.339178
O1	O	0.245557	0.347689	0.382873
O2	O	0.742416	0.650977	0.881292
O3	O	0.755261	0.147507	0.377178
O4	O	0.250196	0.852352	0.876261
O5	O	0.946138	0.356160	0.482994
O6	O	0.442275	0.641415	0.979877
O7	O	0.057679	0.135158	0.481078
O8	O	0.553372	0.862758	0.979399
N1	N	0.616875	0.851253	0.704828
N2	N	0.121459	0.148857	0.206052
N3	N	0.373085	0.650310	0.705838
N4	N	0.877620	0.350928	0.208041
C1	C	0.576425	0.970050	0.521984
C2	C	0.076758	0.031106	0.022308
H1	H	0.474249	0.999575	0.443113
H2	H	0.973076	0.002692	0.943499
C3	C	0.781269	0.011770	0.546492
C4	C	0.280489	0.987744	0.046146
C5	C	0.903830	0.970202	0.650371
C6	C	0.405041	0.028353	0.149893
H3	H	0.064125	0.998805	0.673520
H4	H	0.564681	0.998665	0.172602
C7	C	0.416363	0.529704	0.526384
C8	C	0.917091	0.471409	0.027904
H5	H	0.517401	0.500895	0.449282
H6	H	0.017282	0.500397	0.950548
C9	C	0.490274	0.613331	0.606435
C10	C	0.993638	0.388677	0.108617
C11	C	0.498952	0.889206	0.603203
C12	C	0.002139	0.112232	0.104247
H7	H	0.340308	0.855123	0.588560
C13	C	0.815954	0.889383	0.727552
C14	C	0.319869	0.109547	0.227812
H8	H	0.412479	0.143103	0.308797
C15	C	0.177724	0.608983	0.727352
C16	C	0.681780	0.391633	0.229394
H9	H	0.087458	0.642944	0.806608
H10	H	0.592757	0.357526	0.309051
C17	C	0.093850	0.525079	0.651312
C18	C	0.595316	0.474711	0.152754
H11	H	0.937343	0.493231	0.673502
H12	H	0.437905	0.505201	0.175264
C19	C	0.216328	0.484270	0.550116
C20	C	0.715665	0.515656	0.050638
C21	C	0.866619	0.099319	0.466621
C22	C	0.363035	0.899720	0.965672
C23	C	0.134755	0.394474	0.470676
C24	C	0.632086	0.604172	0.969107
C_fg1	C_fg	0.955210	0.842899	0.843152
C_fg2	C_fg	0.849995	0.754673	0.923918
H_fg1	H_fg	0.103838	0.808830	0.802662
H_fg2	H_fg	0.996724	0.909392	0.910790
C_fg3	C_fg	0.000358	0.715963	0.033089
H_fg3	H_fg	0.702115	0.785945	0.968411
H_fg4	H_fg	0.809161	0.685448	0.860349
H_fg5	H_fg	0.042427	0.782850	0.099887
H_fg6	H_fg	0.920459	0.652455	0.089663
H_fg7	H_fg	0.149157	0.682651	0.992144
C_fg4	C_fg	0.774876	0.160693	0.075811
C_fg5	C_fg	0.703061	0.249108	0.169144
H_fg8	H_fg	0.655394	0.095157	0.080722
H_fg9	H_fg	0.773075	0.195229	0.976134
C_fg6	C_fg	0.479956	0.289836	0.131647
H_fg10	H_fg	0.816343	0.317424	0.165590
H_fg11	H_fg	0.698740	0.217413	0.270111
H_fg12	H_fg	0.478727	0.323614	0.031679
H_fg13	H_fg	0.432321	0.353437	0.200493
H_fg14	H_fg	0.361471	0.223898	0.135890
C_fg7	C_fg	0.713512	0.664262	0.579077
C_fg8	C_fg	0.784488	0.755483	0.670523
H_fg15	H_fg	0.836750	0.600480	0.587245
H_fg16	H_fg	0.709192	0.696775	0.478389
C_fg9	C_fg	0.003755	0.798434	0.634210
H_fg17	H_fg	0.667357	0.822154	0.663695
H_fg18	H_fg	0.794831	0.725918	0.772481
H_fg19	H_fg	0.998891	0.830176	0.533248
H_fg20	H_fg	0.050858	0.864034	0.701655
H_fg21	H_fg	0.125988	0.734224	0.641711
C_fg10	C_fg	0.218912	0.339704	0.081768
C_fg11	C_fg	0.292897	0.249440	0.173787
H_fg22	H_fg	0.339766	0.404622	0.089753
H_fg23	H_fg	0.216144	0.306831	0.981255
C_fg12	C_fg	0.513842	0.208374	0.137986
H_fg24	H_fg	0.178250	0.181694	0.167167
H_fg25	H_fg	0.301791	0.279423	0.275595
H_fg26	H_fg	0.510503	0.176267	0.037193
H_fg27	H_fg	0.563104	0.143432	0.205838
H_fg28	H_fg	0.633678	0.273708	0.145300

loop_
_geom_bond_atom_site_label_1
_geom_bond_atom_site_label_2
_geom_bond_distance
Ni1	O2	0.27172
Ni1	O4	0.26685
Ni1	O6	0.18814
Ni1	O8	0.19072
Ni1	N1	0.20577
Ni1	N3	0.20466
Ni2	O1	0.26865
Ni2	O3	0.26723
Ni2	O5	0.18782
Ni2	O7	0.19027
Ni2	N2	0.20571
Ni2	N4	0.20677
O1	C23	0.14891
O2	C24	0.14858
O3	C21	0.15074
O4	C22	0.15156
O5	C23	0.19286
O6	C24	0.19373
O7	C21	0.19493
O8	C22	0.19438
N1	C11	0.16023
N1	C13	0.20397
N2	C12	0.16107
N2	C14	0.20343
N3	C9	0.15806
N3	C15	0.20084
N4	C10	0.15739
N4	C16	0.20116
C1	H1	0.13241
C1	C3	0.21048
C1	C11	0.13833
C2	H2	0.13330
C2	C4	0.20965
C2	C12	0.13734
C3	C5	0.16595
C3	C21	0.14604
C4	C6	0.16711
C4	C22	0.14505
C5	H3	0.16446
C5	C13	0.14216
C6	H4	0.16396
C6	C14	0.14113
C7	H5	0.13032
C7	C9	0.13735
C7	C19	0.20650
C8	H6	0.12986
C8	C10	0.13863
C8	C20	0.20748
C9	C_fg7	0.23060
C10	C_fg10	0.23209
C11	H7	0.16292
C12	C_fg4	0.23411
C13	C_fg1	0.18686
C14	H8	0.12752
C15	H9	0.12483
C15	C17	0.14091
C16	H10	0.12423
C16	C18	0.14231
C17	H11	0.16125
C17	C19	0.16403
C18	H12	0.16191
C18	C20	0.16306
C19	C23	0.14501
C20	C24	0.14652
C_fg1	C_fg2	0.15930
C_fg1	H_fg1	0.15777
C_fg1	H_fg2	0.10354
C_fg2	C_fg3	0.18980
C_fg2	H_fg3	0.15756
C_fg2	H_fg4	0.10247
H_fg1	H_fg2	0.18242
C_fg3	H_fg5	0.10347
C_fg3	H_fg6	0.11670
C_fg3	H_fg7	0.15788
H_fg3	H_fg4	0.18231
H_fg5	H_fg6	0.17884
H_fg5	H_fg7	0.18177
H_fg6	H_fg7	0.25045
C_fg4	C_fg5	0.14726
C_fg4	H_fg8	0.13636
C_fg4	H_fg9	0.10551
C_fg5	C_fg6	0.22987
C_fg5	H_fg10	0.13233
C_fg5	H_fg11	0.10591
H_fg8	H_fg9	0.18655
C_fg6	H_fg12	0.10553
C_fg6	H_fg13	0.10514
C_fg6	H_fg14	0.13566
H_fg10	H_fg11	0.18643
H_fg12	H_fg13	0.17760
H_fg12	H_fg14	0.18588
H_fg13	H_fg14	0.16116
C_fg7	C_fg8	0.14738
C_fg7	H_fg15	0.13900
C_fg7	H_fg16	0.10590
C_fg8	C_fg9	0.22636
C_fg8	H_fg17	0.13495
C_fg8	H_fg18	0.10666
H_fg15	H_fg16	0.19337
C_fg9	H_fg19	0.10595
C_fg9	H_fg20	0.10522
C_fg9	H_fg21	0.13828
H_fg17	H_fg18	0.19325
H_fg19	H_fg20	0.17947
H_fg19	H_fg21	0.19268
H_fg20	H_fg21	0.16152
C_fg10	C_fg11	0.14862
C_fg10	H_fg22	0.13742
C_fg10	H_fg23	0.10579
C_fg11	C_fg12	0.22756
C_fg11	H_fg24	0.13333
C_fg11	H_fg25	0.10650
H_fg22	H_fg23	0.19136
C_fg12	H_fg26	0.10584
C_fg12	H_fg27	0.10606
C_fg12	H_fg28	0.13669
H_fg24	H_fg25	0.19123
H_fg26	H_fg27	0.17968
H_fg26	H_fg28	0.19067
H_fg27	H_fg28	0.16006
