data_NiPyC2_relax_NiPyC2_relax_aligned_P-2CH3_NiPyC2_relax_aligned_P-2CH3_NiPyC2_relax_aligned_P-2CH3_NiPyC2_relax_aligned_P-2CH3_PM
_symmetry_space_group_name_H-M	'P1'
_cell_length_a	6.252800
_cell_length_b	12.523400
_cell_length_c	10.276800
_cell_angle_alpha	90.000000
_cell_angle_beta	91.269000
_cell_angle_gamma	90.000000
_symmetry_Int_Tables_number 1

loop_
_symmetry_equiv_pos_as_xyz
'x,y,z'

loop_
_atom_site_label
_atom_site_type_symbol
_atom_site_fract_x
_atom_site_fract_y
_atom_site_fract_z
Ni1	Ni	0.494004	0.751486	0.836326
Ni2	Ni	0.999945	0.247999	0.339178
O1	O	0.245557	0.347689	0.382873
O2	O	0.742416	0.650977	0.881292
O3	O	0.755261	0.147507	0.377178
O4	O	0.250196	0.852352	0.876261
O5	O	0.946138	0.356160	0.482994
O6	O	0.442275	0.641415	0.979877
O7	O	0.057679	0.135158	0.481078
O8	O	0.553372	0.862758	0.979399
N1	N	0.616875	0.851253	0.704828
N2	N	0.121459	0.148857	0.206052
N3	N	0.373085	0.650310	0.705838
N4	N	0.877620	0.350928	0.208041
C1	C	0.576425	0.970050	0.521984
C2	C	0.076758	0.031106	0.022308
H1	H	0.474249	0.999575	0.443113
H2	H	0.973076	0.002692	0.943499
C3	C	0.781269	0.011770	0.546492
C4	C	0.280489	0.987744	0.046146
C5	C	0.903830	0.970202	0.650371
C6	C	0.405041	0.028353	0.149893
H3	H	0.064125	0.998805	0.673520
H4	H	0.564681	0.998665	0.172602
C7	C	0.416363	0.529704	0.526384
C8	C	0.917091	0.471409	0.027904
H5	H	0.517401	0.500895	0.449282
H6	H	0.017282	0.500397	0.950548
C9	C	0.490274	0.613331	0.606435
C10	C	0.993638	0.388677	0.108617
C11	C	0.498952	0.889206	0.603203
C12	C	0.002139	0.112232	0.104247
H7	H	0.340308	0.855123	0.588560
H8	H	0.844645	0.147732	0.089886
C13	C	0.815954	0.889383	0.727552
C14	C	0.319869	0.109547	0.227812
C15	C	0.177724	0.608983	0.727352
C16	C	0.681780	0.391633	0.229394
H9	H	0.087458	0.642944	0.806608
H10	H	0.592757	0.357526	0.309051
C17	C	0.093850	0.525079	0.651312
C18	C	0.595316	0.474711	0.152754
H11	H	0.937343	0.493231	0.673502
H12	H	0.437905	0.505201	0.175264
C19	C	0.216328	0.484270	0.550116
C20	C	0.715665	0.515656	0.050638
C21	C	0.866619	0.099319	0.466621
C22	C	0.363035	0.899720	0.965672
C23	C	0.134755	0.394474	0.470676
C24	C	0.632086	0.604172	0.969107
P_fg1	P_fg	0.981547	0.830777	0.868871
C_fg1	C_fg	0.787972	0.742855	0.954569
H_fg1	H_fg	0.750509	0.671665	0.893991
H_fg2	H_fg	0.638720	0.786653	0.976575
H_fg3	H_fg	0.862224	0.715734	0.047872
C_fg2	C_fg	0.958624	0.946048	0.983202
H_fg4	H_fg	0.048117	0.015905	0.946951
H_fg5	H_fg	0.026523	0.923045	0.079837
H_fg6	H_fg	0.788492	0.969078	0.993589
P_fg2	P_fg	0.487893	0.166357	0.369162
C_fg3	C_fg	0.326566	0.282211	0.426825
H_fg7	H_fg	0.181235	0.252952	0.475536
H_fg8	H_fg	0.280989	0.335915	0.344868
H_fg9	H_fg	0.424087	0.328682	0.498326
C_fg4	C_fg	0.675931	0.247604	0.270784
H_fg10	H_fg	0.782614	0.195148	0.214637
H_fg11	H_fg	0.775631	0.297940	0.337037
H_fg12	H_fg	0.585497	0.299686	0.201712
P_fg3	P_fg	0.761906	0.676915	0.575998
C_fg5	C_fg	0.770731	0.793975	0.689099
H_fg13	H_fg	0.787556	0.765848	0.791181
H_fg14	H_fg	0.624979	0.843954	0.677227
H_fg15	H_fg	0.911622	0.843930	0.666477
C_fg6	C_fg	0.683124	0.755186	0.427713
H_fg16	H_fg	0.648025	0.701160	0.344637
H_fg17	H_fg	0.816694	0.808798	0.401515
H_fg18	H_fg	0.538608	0.803795	0.446304
P_fg4	P_fg	0.267179	0.327012	0.078297
C_fg7	C_fg	0.313242	0.236800	0.221298
H_fg19	H_fg	0.204299	0.167027	0.214092
H_fg20	H_fg	0.288684	0.279835	0.314213
H_fg21	H_fg	0.480704	0.207581	0.220780
C_fg8	C_fg	0.434429	0.439479	0.143278
H_fg22	H_fg	0.419641	0.510302	0.079174
H_fg23	H_fg	0.604532	0.414287	0.147807
H_fg24	H_fg	0.383145	0.462000	0.242246

loop_
_geom_bond_atom_site_label_1
_geom_bond_atom_site_label_2
_geom_bond_distance
Ni1	O2	0.27172
Ni1	O4	0.26685
Ni1	O6	0.18814
Ni1	O8	0.19072
Ni1	N1	0.20577
Ni1	N3	0.20466
Ni2	O1	0.26865
Ni2	O3	0.26723
Ni2	O5	0.18782
Ni2	O7	0.19027
Ni2	N2	0.20571
Ni2	N4	0.20677
O1	C23	0.14891
O2	C24	0.14858
O3	C21	0.15074
O4	C22	0.15156
O5	C23	0.19286
O6	C24	0.19373
O7	C21	0.19493
O8	C22	0.19438
N1	C11	0.16023
N1	C13	0.20397
N2	C12	0.16107
N2	C14	0.20343
N3	C9	0.15806
N3	C15	0.20084
N4	C10	0.15739
N4	C16	0.20116
C1	H1	0.13241
C1	C3	0.21048
C1	C11	0.13833
C2	H2	0.13330
C2	C4	0.20965
C2	C12	0.13734
C3	C5	0.16595
C3	C21	0.14604
C4	C6	0.16711
C4	C22	0.14505
C5	H3	0.16446
C5	C13	0.14216
C6	H4	0.16396
C6	C14	0.14113
C7	H5	0.13032
C7	C9	0.13735
C7	C19	0.20650
C8	H6	0.12986
C8	C10	0.13863
C8	C20	0.20748
C9	P_fg3	0.28063
C10	P_fg4	0.28204
C11	H7	0.16292
C12	H8	0.16208
C13	P_fg1	0.22545
C14	P_fg2	0.22680
C15	H9	0.12483
C15	C17	0.14091
C16	H10	0.12423
C16	C18	0.14231
C17	H11	0.16125
C17	C19	0.16403
C18	H12	0.16191
C18	C20	0.16306
C19	C23	0.14501
C20	C24	0.14652
P_fg1	C_fg1	0.22923
P_fg1	C_fg2	0.16397
C_fg1	H_fg1	0.10070
C_fg1	H_fg2	0.15709
C_fg1	H_fg3	0.12229
H_fg1	H_fg2	0.18039
H_fg1	H_fg3	0.19520
H_fg2	H_fg3	0.24509
C_fg2	H_fg4	0.11918
C_fg2	H_fg5	0.12032
C_fg2	H_fg6	0.17200
H_fg4	H_fg5	0.16355
H_fg4	H_fg6	0.26791
H_fg5	H_fg6	0.25733
P_fg2	C_fg3	0.20682
P_fg2	C_fg4	0.22724
C_fg3	H_fg7	0.15605
C_fg3	H_fg8	0.10807
C_fg3	H_fg9	0.12955
H_fg7	H_fg8	0.18414
H_fg7	H_fg9	0.25540
H_fg8	H_fg9	0.20995
C_fg4	H_fg10	0.13147
C_fg4	H_fg11	0.12986
C_fg4	H_fg12	0.12515
H_fg10	H_fg11	0.15999
H_fg10	H_fg12	0.22350
H_fg11	H_fg12	0.23338
P_fg3	C_fg5	0.16301
P_fg3	C_fg6	0.18526
C_fg5	H_fg13	0.10721
C_fg5	H_fg14	0.15454
C_fg5	H_fg15	0.15119
H_fg13	H_fg14	0.21335
H_fg13	H_fg15	0.19246
H_fg14	H_fg15	0.28684
C_fg6	H_fg16	0.10513
C_fg6	H_fg17	0.14629
C_fg6	H_fg18	0.15360
H_fg16	H_fg17	0.20802
H_fg16	H_fg18	0.18122
H_fg17	H_fg18	0.28171
P_fg4	C_fg7	0.17524
P_fg4	C_fg8	0.21176
C_fg7	H_fg19	0.12957
C_fg7	H_fg20	0.10530
C_fg7	H_fg21	0.16999
H_fg19	H_fg20	0.17283
H_fg19	H_fg21	0.27944
H_fg20	H_fg21	0.22544
C_fg8	H_fg22	0.09666
C_fg8	H_fg23	0.17202
C_fg8	H_fg24	0.11372
H_fg22	H_fg23	0.21935
H_fg22	H_fg24	0.17395
H_fg23	H_fg24	0.24537
