data_NiPyC2_relax_NiPyC2_relax_aligned_N-C-O_NiPyC2_relax_aligned_N-C-O_NiPyC2_relax_aligned_N-C-O_NiPyC2_relax_aligned_N-C-O_PM
_symmetry_space_group_name_H-M	'P1'
_cell_length_a	6.252800
_cell_length_b	12.523400
_cell_length_c	10.276800
_cell_angle_alpha	90.000000
_cell_angle_beta	91.269000
_cell_angle_gamma	90.000000
_symmetry_Int_Tables_number 1

loop_
_symmetry_equiv_pos_as_xyz
'x,y,z'

loop_
_atom_site_label
_atom_site_type_symbol
_atom_site_fract_x
_atom_site_fract_y
_atom_site_fract_z
Ni1	Ni	0.494004	0.751486	0.836326
Ni2	Ni	0.999945	0.247999	0.339178
O1	O	0.245557	0.347689	0.382873
O2	O	0.742416	0.650977	0.881292
O3	O	0.755261	0.147507	0.377178
O4	O	0.250196	0.852352	0.876261
O5	O	0.946138	0.356160	0.482994
O6	O	0.442275	0.641415	0.979877
O7	O	0.057679	0.135158	0.481078
O8	O	0.553372	0.862758	0.979399
N1	N	0.616875	0.851253	0.704828
N2	N	0.121459	0.148857	0.206052
N3	N	0.373085	0.650310	0.705838
N4	N	0.877620	0.350928	0.208041
C1	C	0.576425	0.970050	0.521984
C2	C	0.076758	0.031106	0.022308
H1	H	0.474249	0.999575	0.443113
H2	H	0.973076	0.002692	0.943499
C3	C	0.781269	0.011770	0.546492
C4	C	0.280489	0.987744	0.046146
C5	C	0.903830	0.970202	0.650371
C6	C	0.405041	0.028353	0.149893
H3	H	0.064125	0.998805	0.673520
H4	H	0.564681	0.998665	0.172602
C7	C	0.416363	0.529704	0.526384
C8	C	0.917091	0.471409	0.027904
H5	H	0.517401	0.500895	0.449282
H6	H	0.017282	0.500397	0.950548
C9	C	0.490274	0.613331	0.606435
C10	C	0.993638	0.388677	0.108617
H7	H	0.645282	0.650506	0.592635
H8	H	0.149937	0.352851	0.095028
C11	C	0.498952	0.889206	0.603203
C12	C	0.002139	0.112232	0.104247
H9	H	0.340308	0.855123	0.588560
C13	C	0.815954	0.889383	0.727552
C14	C	0.319869	0.109547	0.227812
H10	H	0.412479	0.143103	0.308797
C15	C	0.177724	0.608983	0.727352
C16	C	0.681780	0.391633	0.229394
C17	C	0.093850	0.525079	0.651312
C18	C	0.595316	0.474711	0.152754
H11	H	0.937343	0.493231	0.673502
H12	H	0.437905	0.505201	0.175264
C19	C	0.216328	0.484270	0.550116
C20	C	0.715665	0.515656	0.050638
C21	C	0.866619	0.099319	0.466621
C22	C	0.363035	0.899720	0.965672
C23	C	0.134755	0.394474	0.470676
C24	C	0.632086	0.604172	0.969107
N5	N	0.947417	0.846973	0.835233
C25	C	0.878204	0.776866	0.911845
O9	O	0.810903	0.710399	0.983879
N6	N	0.789706	0.156494	0.076785
C26	C	0.708241	0.226968	0.148168
O10	O	0.632598	0.293766	0.216529
N7	N	0.047205	0.650951	0.831955
C27	C	0.113768	0.723847	0.907377
O11	O	0.178532	0.792978	0.978306
N8	N	0.552062	0.349418	0.334430
C28	C	0.614672	0.272552	0.404988
O12	O	0.675658	0.199638	0.471275

loop_
_geom_bond_atom_site_label_1
_geom_bond_atom_site_label_2
_geom_bond_distance
Ni1	O2	0.27172
Ni1	O4	0.26685
Ni1	O6	0.18814
Ni1	O8	0.19072
Ni1	N1	0.20577
Ni1	N3	0.20466
Ni2	O1	0.26865
Ni2	O3	0.26723
Ni2	O5	0.18782
Ni2	O7	0.19027
Ni2	N2	0.20571
Ni2	N4	0.20677
O1	C23	0.14891
O2	C24	0.14858
O3	C21	0.15074
O4	C22	0.15156
O5	C23	0.19286
O6	C24	0.19373
O7	C21	0.19493
O8	C22	0.19438
N1	C11	0.16023
N1	C13	0.20397
N2	C12	0.16107
N2	C14	0.20343
N3	C9	0.15806
N3	C15	0.20084
N4	C10	0.15739
N4	C16	0.20116
C1	H1	0.13241
C1	C3	0.21048
C1	C11	0.13833
C2	H2	0.13330
C2	C4	0.20965
C2	C12	0.13734
C3	C5	0.16595
C3	C21	0.14604
C4	C6	0.16711
C4	C22	0.14505
C5	H3	0.16446
C5	C13	0.14216
C6	H4	0.16396
C6	C14	0.14113
C7	H5	0.13032
C7	C9	0.13735
C7	C19	0.20650
C8	H6	0.12986
C8	C10	0.13863
C8	C20	0.20748
C9	H7	0.16000
C10	H8	0.16093
C11	H9	0.16292
C12	N6	0.21873
C13	N5	0.17515
C14	H10	0.12752
C15	C17	0.14091
C15	N7	0.17245
C16	C18	0.14231
C16	N8	0.17217
C17	H11	0.16125
C17	C19	0.16403
C18	H12	0.16191
C18	C20	0.16306
C19	C23	0.14501
C20	C24	0.14652
N5	C25	0.12480
C25	O9	0.11890
N6	C26	0.12922
C26	O10	0.12189
N7	C27	0.12423
C27	O11	0.11834
N8	C28	0.12168
C28	O12	0.11589
