data_NiPyC2_relax_NiPyC2_relax_aligned_O-CH2-CH2-CH3_NiPyC2_relax_aligned_O-CH2-CH2-CH3_NiPyC2_relax_aligned_O-CH2-CH2-CH3_NiPyC2_relax_aligned_O-CH2-CH2-CH3_PM
_symmetry_space_group_name_H-M	'P1'
_cell_length_a	6.252800
_cell_length_b	12.523400
_cell_length_c	10.276800
_cell_angle_alpha	90.000000
_cell_angle_beta	91.269000
_cell_angle_gamma	90.000000
_symmetry_Int_Tables_number 1

loop_
_symmetry_equiv_pos_as_xyz
'x,y,z'

loop_
_atom_site_label
_atom_site_type_symbol
_atom_site_fract_x
_atom_site_fract_y
_atom_site_fract_z
Ni1	Ni	0.494004	0.751486	0.836326
Ni2	Ni	0.999945	0.247999	0.339178
O1	O	0.245557	0.347689	0.382873
O2	O	0.742416	0.650977	0.881292
O3	O	0.755261	0.147507	0.377178
O4	O	0.250196	0.852352	0.876261
O5	O	0.946138	0.356160	0.482994
O6	O	0.442275	0.641415	0.979877
O7	O	0.057679	0.135158	0.481078
O8	O	0.553372	0.862758	0.979399
N1	N	0.616875	0.851253	0.704828
N2	N	0.121459	0.148857	0.206052
N3	N	0.373085	0.650310	0.705838
N4	N	0.877620	0.350928	0.208041
C1	C	0.576425	0.970050	0.521984
C2	C	0.076758	0.031106	0.022308
H1	H	0.973076	0.002692	0.943499
C3	C	0.781269	0.011770	0.546492
C4	C	0.280489	0.987744	0.046146
C5	C	0.903830	0.970202	0.650371
C6	C	0.405041	0.028353	0.149893
H2	H	0.064125	0.998805	0.673520
C7	C	0.416363	0.529704	0.526384
C8	C	0.917091	0.471409	0.027904
C9	C	0.490274	0.613331	0.606435
C10	C	0.993638	0.388677	0.108617
H3	H	0.645282	0.650506	0.592635
H4	H	0.149937	0.352851	0.095028
C11	C	0.498952	0.889206	0.603203
C12	C	0.002139	0.112232	0.104247
H5	H	0.340308	0.855123	0.588560
H6	H	0.844645	0.147732	0.089886
C13	C	0.815954	0.889383	0.727552
C14	C	0.319869	0.109547	0.227812
H7	H	0.906740	0.855173	0.808761
H8	H	0.412479	0.143103	0.308797
C15	C	0.177724	0.608983	0.727352
C16	C	0.681780	0.391633	0.229394
H9	H	0.087458	0.642944	0.806608
H10	H	0.592757	0.357526	0.309051
C17	C	0.093850	0.525079	0.651312
C18	C	0.595316	0.474711	0.152754
H11	H	0.937343	0.493231	0.673502
H12	H	0.437905	0.505201	0.175264
C19	C	0.216328	0.484270	0.550116
C20	C	0.715665	0.515656	0.050638
C21	C	0.866619	0.099319	0.466621
C22	C	0.363035	0.899720	0.965672
C23	C	0.134755	0.394474	0.470676
C24	C	0.632086	0.604172	0.969107
O_fg1	O_fg	0.455428	0.008474	0.419797
C_fg1	C_fg	0.251855	0.974779	0.384620
C_fg2	C_fg	0.173405	0.037704	0.265512
H_fg1	H_fg	0.141637	0.988866	0.466389
H_fg2	H_fg	0.254796	0.888208	0.360413
C_fg3	C_fg	0.948550	0.003326	0.222697
H_fg3	H_fg	0.284276	0.024367	0.183990
H_fg4	H_fg	0.171907	0.124317	0.289223
H_fg5	H_fg	0.946785	0.917248	0.196575
H_fg6	H_fg	0.896119	0.050378	0.136147
H_fg7	H_fg	0.834139	0.017439	0.302064
O_fg2	O_fg	0.605734	0.988760	0.173576
C_fg4	C_fg	0.744855	0.021386	0.272042
C_fg5	C_fg	0.952078	0.957278	0.264774
H_fg8	H_fg	0.671015	0.007463	0.368080
H_fg9	H_fg	0.781260	0.107784	0.260489
C_fg6	C_fg	0.111506	0.990446	0.371838
H_fg10	H_fg	0.025259	0.970455	0.168473
H_fg11	H_fg	0.915788	0.870840	0.275313
H_fg12	H_fg	0.152721	0.076319	0.362086
H_fg13	H_fg	0.260109	0.942553	0.364005
H_fg14	H_fg	0.042985	0.976463	0.469188
O_fg3	O_fg	0.535713	0.492183	0.426341
C_fg7	C_fg	0.734700	0.529528	0.392280
C_fg8	C_fg	0.812948	0.466349	0.275435
H_fg15	H_fg	0.849778	0.519114	0.475437
H_fg16	H_fg	0.723353	0.615546	0.365951
C_fg9	C_fg	0.032796	0.504696	0.233921
H_fg17	H_fg	0.697291	0.476004	0.192536
H_fg18	H_fg	0.822834	0.380251	0.301255
H_fg19	H_fg	0.026106	0.590289	0.205733
H_fg20	H_fg	0.085195	0.457366	0.149004
H_fg21	H_fg	0.151957	0.494304	0.314717
O_fg4	O_fg	0.036049	0.509327	0.927658
C_fg10	C_fg	0.236332	0.473291	0.894284
C_fg11	C_fg	0.313291	0.536434	0.777080
H_fg22	H_fg	0.227719	0.387062	0.868641
H_fg23	H_fg	0.350647	0.484995	0.977567
C_fg12	C_fg	0.534512	0.499520	0.736310
H_fg24	H_fg	0.320434	0.622730	0.802207
H_fg25	H_fg	0.198374	0.525482	0.694047
H_fg26	H_fg	0.652920	0.511227	0.817242
H_fg27	H_fg	0.585930	0.546790	0.651111
H_fg28	H_fg	0.530565	0.413741	0.708820

loop_
_geom_bond_atom_site_label_1
_geom_bond_atom_site_label_2
_geom_bond_distance
Ni1	O2	0.27172
Ni1	O4	0.26685
Ni1	O6	0.18814
Ni1	O8	0.19072
Ni1	N1	0.20577
Ni1	N3	0.20466
Ni2	O1	0.26865
Ni2	O3	0.26723
Ni2	O5	0.18782
Ni2	O7	0.19027
Ni2	N2	0.20571
Ni2	N4	0.20677
O1	C23	0.14891
O2	C24	0.14858
O3	C21	0.15074
O4	C22	0.15156
O5	C23	0.19286
O6	C24	0.19373
O7	C21	0.19493
O8	C22	0.19438
N1	C11	0.16023
N1	C13	0.20397
N2	C12	0.16107
N2	C14	0.20343
N3	C9	0.15806
N3	C15	0.20084
N4	C10	0.15739
N4	C16	0.20116
C1	C3	0.21048
C1	C11	0.13833
C1	O_fg1	0.16297
C2	H1	0.13330
C2	C4	0.20965
C2	C12	0.13734
C3	C5	0.16595
C3	C21	0.14604
C4	C6	0.16711
C4	C22	0.14505
C5	H2	0.16446
C5	C13	0.14216
C6	C14	0.14113
C6	O_fg2	0.20593
C7	C9	0.13735
C7	C19	0.20650
C7	O_fg3	0.16019
C8	C10	0.13863
C8	C20	0.20748
C8	O_fg4	0.16012
C9	H3	0.16000
C10	H4	0.16093
C11	H5	0.16292
C12	H6	0.16208
C13	H7	0.12652
C14	H8	0.12752
C15	H9	0.12483
C15	C17	0.14091
C16	H10	0.12423
C16	C18	0.14231
C17	H11	0.16125
C17	C19	0.16403
C18	H12	0.16191
C18	C20	0.16306
C19	C23	0.14501
C20	C24	0.14652
O_fg1	C_fg1	0.20932
C_fg1	C_fg2	0.15589
C_fg1	H_fg1	0.13796
C_fg1	H_fg2	0.08994
C_fg2	C_fg3	0.23146
C_fg2	H_fg3	0.13826
C_fg2	H_fg4	0.08981
H_fg1	H_fg2	0.18485
C_fg3	H_fg5	0.08997
C_fg3	H_fg6	0.11160
C_fg3	H_fg7	0.13996
H_fg3	H_fg4	0.18355
H_fg5	H_fg6	0.15473
H_fg5	H_fg7	0.18400
H_fg6	H_fg7	0.18015
O_fg2	C_fg4	0.17354
C_fg4	C_fg5	0.21703
C_fg4	H_fg8	0.12194
C_fg4	H_fg9	0.09446
C_fg5	C_fg6	0.19489
C_fg5	H_fg10	0.12167
C_fg5	H_fg11	0.09434
H_fg8	H_fg9	0.18383
C_fg6	H_fg12	0.09575
C_fg6	H_fg13	0.15633
C_fg6	H_fg14	0.11987
H_fg10	H_fg11	0.18254
H_fg12	H_fg13	0.17155
H_fg12	H_fg14	0.18299
H_fg13	H_fg14	0.24363
O_fg3	C_fg7	0.20531
C_fg7	C_fg8	0.15417
C_fg7	H_fg15	0.14236
C_fg7	H_fg16	0.09067
C_fg8	C_fg9	0.22700
C_fg8	H_fg17	0.14262
C_fg8	H_fg18	0.09043
H_fg15	H_fg16	0.19305
C_fg9	H_fg19	0.09036
C_fg9	H_fg20	0.11044
C_fg9	H_fg21	0.14434
H_fg17	H_fg18	0.19170
H_fg19	H_fg20	0.15614
H_fg19	H_fg21	0.19217
H_fg20	H_fg21	0.18243
O_fg4	C_fg10	0.20622
C_fg10	C_fg11	0.15377
C_fg10	H_fg22	0.09037
C_fg10	H_fg23	0.14192
C_fg11	C_fg12	0.22796
C_fg11	H_fg24	0.09016
C_fg11	H_fg25	0.14220
H_fg22	H_fg23	0.19122
C_fg12	H_fg26	0.14390
H_fg24	H_fg25	0.18988
