data_NiPyC2_relax_sc211_ortho_functionalized_F
_audit_creation_date              Wednesday 22 July 2020            
_audit_creation_method            Lammps Interface v.0              
_symmetry_space_group_name_H-M    P1                                
_symmetry_Int_Tables_number       1                                 
_symmetry_cell_setting            triclinic                         
loop_
_symmetry_equiv_pos_as_xyz        
'x, y, z'                         
_cell_length_a                    25.0112 
_cell_length_b                    25.0468 
_cell_length_c                    30.8304 
_cell_angle_alpha                 90.0000 
_cell_angle_beta                  91.2690 
_cell_angle_gamma                 90.0000 
loop_
_atom_site_label                  
_atom_site_type_symbol            
_atom_site_description            
_atom_site_fract_x                
_atom_site_fract_y                
_atom_site_fract_z                
_atom_type_partial_charge         
Ni1     Ni     Ni4+2    0.12350    0.37574    0.27878    0.00000 
Ni2     Ni     Ni4+2    0.24999    0.12400    0.11306    0.00000 
O3      O      O_R      0.06139    0.17384    0.12762    0.00000 
O4      O      O_R      0.18560    0.32549    0.29376    0.00000 
O5      O      O_R      0.18882    0.07375    0.12573    0.00000 
O6      O      O_R      0.06255    0.42618    0.29209    0.00000 
O7      O      O_R      0.23653    0.17808    0.16100    0.00000 
O8      O      O_R      0.11057    0.32071    0.32663    0.00000 
O9      O      O_R      0.01442    0.06758    0.16036    0.00000 
O10     O      O_R      0.13834    0.43138    0.32647    0.00000 
N11     N      N_R      0.15422    0.42563    0.23494    0.00000 
N12     N      N_R      0.03036    0.07443    0.06868    0.00000 
N13     N      N_R      0.09327    0.32515    0.23528    0.00000 
N14     N      N_R      0.21940    0.17546    0.06935    0.00000 
C15     C      C_R      0.14411    0.48502    0.17399    0.00000 
C16     C      C_R      0.01919    0.01555    0.00744    0.00000 
H17     H      H_       0.11856    0.49979    0.14770    0.00000 
H18     H      H_       0.24327    0.00135    0.31450    0.00000 
C19     C      C_R      0.19532    0.00589    0.18216    0.00000 
C20     C      C_R      0.07012    0.49387    0.01538    0.00000 
C21     C      C_R      0.22596    0.48510    0.21679    0.00000 
C22     C      C_R      0.10126    0.01418    0.04996    0.00000 
H23     H      H_       0.01603    0.49940    0.22451    0.00000 
H24     H      H_       0.14117    0.49933    0.05753    0.00000 
C25     C      C_R      0.10409    0.26485    0.17546    0.00000 
C26     C      C_R      0.22927    0.23570    0.00930    0.00000 
H27     H      H_       0.12935    0.25045    0.14976    0.00000 
H28     H      H_       0.00432    0.25020    0.31685    0.00000 
C29     C      C_R      0.12257    0.30667    0.20214    0.00000 
C30     C      C_R      0.24841    0.19434    0.03621    0.00000 
H31     H      H_       0.16132    0.32525    0.19755    0.00000 
H32     H      H_       0.03748    0.17643    0.03168    0.00000 
C33     C      C_R      0.12474    0.44460    0.20107    0.00000 
C34     C      C_R      0.00053    0.05612    0.03475    0.00000 
H35     H      H_       0.21116    0.07387    0.02996    0.00000 
C36     C      C_R      0.20399    0.44469    0.24252    0.00000 
C37     C      C_R      0.07997    0.05477    0.07594    0.00000 
H38     H      H_       0.22669    0.42759    0.26959    0.00000 
C39     C      C_R      0.04443    0.30449    0.24245    0.00000 
C40     C      C_R      0.17044    0.19582    0.07646    0.00000 
H41     H      H_       0.14819    0.17876    0.10302    0.00000 
C42     C      C_R      0.02346    0.26254    0.21710    0.00000 
C43     C      C_R      0.14883    0.23736    0.05092    0.00000 
H44     H      H_       0.23434    0.24662    0.22450    0.00000 
H45     H      H_       0.10948    0.25260    0.05842    0.00000 
C46     C      C_R      0.05408    0.24213    0.18337    0.00000 
C47     C      C_R      0.17892    0.25783    0.01688    0.00000 
C48     C      C_R      0.21665    0.04966    0.15554    0.00000 
C49     C      C_R      0.09076    0.44986    0.32189    0.00000 
C50     C      C_R      0.03369    0.19724    0.15689    0.00000 
C51     C      C_R      0.15802    0.30209    0.32304    0.00000 
Ni52    Ni     Ni4+2    0.37350    0.37574    0.27878    0.00000 
Ni53    Ni     Ni4+2    0.49999    0.12400    0.11306    0.00000 
O54     O      O_R      0.31139    0.17384    0.12762    0.00000 
O55     O      O_R      0.43560    0.32549    0.29376    0.00000 
O56     O      O_R      0.43882    0.07375    0.12573    0.00000 
O57     O      O_R      0.31255    0.42618    0.29209    0.00000 
O58     O      O_R      0.48653    0.17808    0.16100    0.00000 
O59     O      O_R      0.36057    0.32071    0.32663    0.00000 
O60     O      O_R      0.26442    0.06758    0.16036    0.00000 
O61     O      O_R      0.38834    0.43138    0.32647    0.00000 
N62     N      N_R      0.40422    0.42563    0.23494    0.00000 
N63     N      N_R      0.28036    0.07443    0.06868    0.00000 
N64     N      N_R      0.34327    0.32515    0.23528    0.00000 
N65     N      N_R      0.46941    0.17546    0.06935    0.00000 
C66     C      C_R      0.39411    0.48502    0.17399    0.00000 
C67     C      C_R      0.26919    0.01555    0.00744    0.00000 
H68     H      H_       0.36856    0.49979    0.14770    0.00000 
H69     H      H_       0.49327    0.00135    0.31450    0.00000 
C70     C      C_R      0.44532    0.00589    0.18216    0.00000 
C71     C      C_R      0.32012    0.49387    0.01538    0.00000 
C72     C      C_R      0.47596    0.48510    0.21679    0.00000 
C73     C      C_R      0.35126    0.01418    0.04996    0.00000 
H74     H      H_       0.26603    0.49940    0.22451    0.00000 
H75     H      H_       0.39117    0.49933    0.05753    0.00000 
C76     C      C_R      0.35409    0.26485    0.17546    0.00000 
C77     C      C_R      0.47927    0.23570    0.00930    0.00000 
H78     H      H_       0.37935    0.25045    0.14976    0.00000 
H79     H      H_       0.25432    0.25020    0.31685    0.00000 
C80     C      C_R      0.37257    0.30667    0.20214    0.00000 
C81     C      C_R      0.49841    0.19434    0.03621    0.00000 
H82     H      H_       0.41132    0.32525    0.19755    0.00000 
C83     C      C_R      0.37474    0.44460    0.20107    0.00000 
C84     C      C_R      0.25053    0.05612    0.03475    0.00000 
H85     H      H_       0.33508    0.42756    0.19619    0.00000 
H86     H      H_       0.46116    0.07387    0.02996    0.00000 
C87     C      C_R      0.45399    0.44469    0.24252    0.00000 
C88     C      C_R      0.32997    0.05477    0.07594    0.00000 
C89     C      C_R      0.29443    0.30449    0.24245    0.00000 
C90     C      C_R      0.42045    0.19582    0.07646    0.00000 
C91     C      C_R      0.27346    0.26254    0.21710    0.00000 
C92     C      C_R      0.39883    0.23736    0.05092    0.00000 
H93     H      H_       0.48434    0.24662    0.22450    0.00000 
H94     H      H_       0.35948    0.25260    0.05842    0.00000 
C95     C      C_R      0.30408    0.24213    0.18337    0.00000 
C96     C      C_R      0.42892    0.25783    0.01688    0.00000 
C97     C      C_R      0.46665    0.04966    0.15554    0.00000 
C98     C      C_R      0.34076    0.44986    0.32189    0.00000 
C99     C      C_R      0.28369    0.19724    0.15689    0.00000 
C100    C      C_R      0.40802    0.30209    0.32304    0.00000 
F101    F      F_       0.07448    0.42371    0.19298    0.00000 
F102    F      F_       0.11067    0.07516    0.10987    0.00000 
F103    F      F_       0.01446    0.32519    0.27553    0.00000 
F104    F      F_       0.29792    0.17237    0.02874    0.00000 
F105    F      F_       0.48416    0.42382    0.27657    0.00000 
F106    F      F_       0.36067    0.07516    0.10987    0.00000 
F107    F      F_       0.26446    0.32519    0.27553    0.00000 
F108    F      F_       0.39077    0.17519    0.10982    0.00000 
Ni109   Ni     Ni4+2    0.12350    0.37574    0.61211    0.00000 
Ni110   Ni     Ni4+2    0.24999    0.12400    0.44639    0.00000 
O111    O      O_R      0.06139    0.17384    0.46096    0.00000 
O112    O      O_R      0.18560    0.32549    0.62710    0.00000 
O113    O      O_R      0.18882    0.07375    0.45906    0.00000 
O114    O      O_R      0.06255    0.42618    0.62542    0.00000 
O115    O      O_R      0.23653    0.17808    0.49433    0.00000 
O116    O      O_R      0.11057    0.32071    0.65996    0.00000 
O117    O      O_R      0.01442    0.06758    0.49369    0.00000 
O118    O      O_R      0.13834    0.43138    0.65980    0.00000 
N119    N      N_R      0.15422    0.42563    0.56828    0.00000 
N120    N      N_R      0.03036    0.07443    0.40202    0.00000 
N121    N      N_R      0.09327    0.32515    0.56861    0.00000 
N122    N      N_R      0.21940    0.17546    0.40268    0.00000 
C123    C      C_R      0.14411    0.48502    0.50733    0.00000 
C124    C      C_R      0.01919    0.01555    0.34077    0.00000 
H125    H      H_       0.11856    0.49979    0.48104    0.00000 
H126    H      H_       0.24327    0.00135    0.64783    0.00000 
C127    C      C_R      0.19532    0.00588    0.51550    0.00000 
C128    C      C_R      0.07012    0.49387    0.34872    0.00000 
C129    C      C_R      0.22596    0.48510    0.55012    0.00000 
C130    C      C_R      0.10126    0.01418    0.38330    0.00000 
H131    H      H_       0.01603    0.49940    0.55784    0.00000 
H132    H      H_       0.14117    0.49933    0.39087    0.00000 
C133    C      C_R      0.10409    0.26485    0.50879    0.00000 
C134    C      C_R      0.22927    0.23570    0.34263    0.00000 
H135    H      H_       0.12935    0.25045    0.48309    0.00000 
H136    H      H_       0.00432    0.25020    0.65018    0.00000 
C137    C      C_R      0.12257    0.30667    0.53548    0.00000 
C138    C      C_R      0.24841    0.19434    0.36954    0.00000 
H139    H      H_       0.16132    0.32525    0.53088    0.00000 
H140    H      H_       0.03748    0.17643    0.36501    0.00000 
C141    C      C_R      0.12474    0.44460    0.53440    0.00000 
C142    C      C_R      0.00053    0.05612    0.36808    0.00000 
H143    H      H_       0.21116    0.07387    0.36330    0.00000 
C144    C      C_R      0.20399    0.44469    0.57585    0.00000 
C145    C      C_R      0.07997    0.05477    0.40927    0.00000 
H146    H      H_       0.22669    0.42759    0.60292    0.00000 
C147    C      C_R      0.04443    0.30449    0.57578    0.00000 
C148    C      C_R      0.17044    0.19582    0.40980    0.00000 
H149    H      H_       0.14819    0.17876    0.43635    0.00000 
C150    C      C_R      0.02346    0.26254    0.55044    0.00000 
C151    C      C_R      0.14883    0.23736    0.38425    0.00000 
H152    H      H_       0.23434    0.24662    0.55783    0.00000 
H153    H      H_       0.10948    0.25260    0.39175    0.00000 
C154    C      C_R      0.05408    0.24213    0.51671    0.00000 
C155    C      C_R      0.17892    0.25783    0.35021    0.00000 
C156    C      C_R      0.21666    0.04966    0.48887    0.00000 
C157    C      C_R      0.09076    0.44986    0.65522    0.00000 
C158    C      C_R      0.03369    0.19724    0.49023    0.00000 
C159    C      C_R      0.15802    0.30209    0.65637    0.00000 
Ni160   Ni     Ni4+2    0.37350    0.37574    0.61211    0.00000 
Ni161   Ni     Ni4+2    0.49999    0.12400    0.44639    0.00000 
O162    O      O_R      0.31139    0.17384    0.46096    0.00000 
O163    O      O_R      0.43560    0.32549    0.62710    0.00000 
O164    O      O_R      0.43881    0.07375    0.45906    0.00000 
O165    O      O_R      0.31255    0.42618    0.62542    0.00000 
O166    O      O_R      0.48653    0.17808    0.49433    0.00000 
O167    O      O_R      0.36057    0.32071    0.65996    0.00000 
O168    O      O_R      0.26442    0.06758    0.49369    0.00000 
O169    O      O_R      0.38834    0.43138    0.65980    0.00000 
N170    N      N_R      0.40422    0.42563    0.56828    0.00000 
N171    N      N_R      0.28036    0.07443    0.40202    0.00000 
N172    N      N_R      0.34327    0.32515    0.56861    0.00000 
N173    N      N_R      0.46940    0.17546    0.40268    0.00000 
C174    C      C_R      0.39411    0.48502    0.50733    0.00000 
C175    C      C_R      0.26919    0.01555    0.34077    0.00000 
H176    H      H_       0.36856    0.49979    0.48104    0.00000 
H177    H      H_       0.49327    0.00135    0.64783    0.00000 
C178    C      C_R      0.44532    0.00588    0.51550    0.00000 
C179    C      C_R      0.32012    0.49387    0.34872    0.00000 
C180    C      C_R      0.47596    0.48510    0.55012    0.00000 
C181    C      C_R      0.35126    0.01418    0.38330    0.00000 
H182    H      H_       0.26603    0.49940    0.55784    0.00000 
H183    H      H_       0.39117    0.49933    0.39087    0.00000 
C184    C      C_R      0.35409    0.26485    0.50879    0.00000 
C185    C      C_R      0.47927    0.23570    0.34263    0.00000 
H186    H      H_       0.37935    0.25045    0.48309    0.00000 
H187    H      H_       0.25432    0.25020    0.65018    0.00000 
C188    C      C_R      0.37257    0.30667    0.53548    0.00000 
C189    C      C_R      0.49841    0.19434    0.36954    0.00000 
H190    H      H_       0.41132    0.32525    0.53088    0.00000 
C191    C      C_R      0.37474    0.44460    0.53440    0.00000 
C192    C      C_R      0.25053    0.05612    0.36808    0.00000 
H193    H      H_       0.33508    0.42756    0.52952    0.00000 
H194    H      H_       0.46116    0.07387    0.36330    0.00000 
C195    C      C_R      0.45399    0.44469    0.57585    0.00000 
C196    C      C_R      0.32997    0.05477    0.40927    0.00000 
C197    C      C_R      0.29443    0.30449    0.57578    0.00000 
C198    C      C_R      0.42045    0.19582    0.40980    0.00000 
C199    C      C_R      0.27346    0.26254    0.55044    0.00000 
C200    C      C_R      0.39883    0.23736    0.38425    0.00000 
H201    H      H_       0.48434    0.24662    0.55783    0.00000 
H202    H      H_       0.35948    0.25260    0.39175    0.00000 
C203    C      C_R      0.30408    0.24213    0.51671    0.00000 
C204    C      C_R      0.42892    0.25783    0.35021    0.00000 
C205    C      C_R      0.46665    0.04966    0.48887    0.00000 
C206    C      C_R      0.34076    0.44986    0.65522    0.00000 
C207    C      C_R      0.28369    0.19724    0.49023    0.00000 
C208    C      C_R      0.40802    0.30209    0.65637    0.00000 
F209    F      F_       0.07448    0.42371    0.52631    0.00000 
F210    F      F_       0.11067    0.07516    0.44320    0.00000 
F211    F      F_       0.01446    0.32519    0.60886    0.00000 
F212    F      F_       0.29792    0.17237    0.36207    0.00000 
F213    F      F_       0.48416    0.42382    0.60990    0.00000 
F214    F      F_       0.36067    0.07516    0.44320    0.00000 
F215    F      F_       0.26446    0.32519    0.60886    0.00000 
F216    F      F_       0.39077    0.17519    0.44316    0.00000 
Ni217   Ni     Ni4+2    0.12350    0.37574    0.94544    0.00000 
Ni218   Ni     Ni4+2    0.24999    0.12400    0.77973    0.00000 
O219    O      O_R      0.06139    0.17384    0.79429    0.00000 
O220    O      O_R      0.18560    0.32549    0.96043    0.00000 
O221    O      O_R      0.18881    0.07375    0.79239    0.00000 
O222    O      O_R      0.06255    0.42618    0.95875    0.00000 
O223    O      O_R      0.23653    0.17808    0.82766    0.00000 
O224    O      O_R      0.11057    0.32071    0.99329    0.00000 
O225    O      O_R      0.01442    0.06758    0.82703    0.00000 
O226    O      O_R      0.13834    0.43138    0.99313    0.00000 
N227    N      N_R      0.15422    0.42563    0.90161    0.00000 
N228    N      N_R      0.03036    0.07443    0.73535    0.00000 
N229    N      N_R      0.09327    0.32516    0.90195    0.00000 
N230    N      N_R      0.21940    0.17546    0.73601    0.00000 
C231    C      C_R      0.14411    0.48503    0.84066    0.00000 
C232    C      C_R      0.01919    0.01555    0.67410    0.00000 
H233    H      H_       0.11856    0.49979    0.81437    0.00000 
H234    H      H_       0.24327    0.00135    0.98117    0.00000 
C235    C      C_R      0.19532    0.00589    0.84883    0.00000 
C236    C      C_R      0.07012    0.49387    0.68205    0.00000 
C237    C      C_R      0.22596    0.48510    0.88346    0.00000 
C238    C      C_R      0.10126    0.01418    0.71663    0.00000 
H239    H      H_       0.01603    0.49940    0.89117    0.00000 
H240    H      H_       0.14117    0.49933    0.72420    0.00000 
C241    C      C_R      0.10409    0.26485    0.84213    0.00000 
C242    C      C_R      0.22927    0.23570    0.67597    0.00000 
H243    H      H_       0.12935    0.25045    0.81643    0.00000 
H244    H      H_       0.00432    0.25020    0.98352    0.00000 
C245    C      C_R      0.12257    0.30667    0.86881    0.00000 
C246    C      C_R      0.24841    0.19434    0.70287    0.00000 
H247    H      H_       0.16132    0.32525    0.86421    0.00000 
H248    H      H_       0.03748    0.17643    0.69834    0.00000 
C249    C      C_R      0.12474    0.44460    0.86773    0.00000 
C250    C      C_R      0.00053    0.05612    0.70142    0.00000 
H251    H      H_       0.21116    0.07387    0.69663    0.00000 
C252    C      C_R      0.20399    0.44469    0.90918    0.00000 
C253    C      C_R      0.07997    0.05477    0.74260    0.00000 
H254    H      H_       0.22669    0.42759    0.93625    0.00000 
C255    C      C_R      0.04443    0.30449    0.90912    0.00000 
C256    C      C_R      0.17044    0.19582    0.74313    0.00000 
H257    H      H_       0.14819    0.17876    0.76968    0.00000 
C258    C      C_R      0.02346    0.26254    0.88377    0.00000 
C259    C      C_R      0.14883    0.23736    0.71758    0.00000 
H260    H      H_       0.23434    0.24662    0.89117    0.00000 
H261    H      H_       0.10948    0.25260    0.72509    0.00000 
C262    C      C_R      0.05408    0.24213    0.85004    0.00000 
C263    C      C_R      0.17892    0.25783    0.68355    0.00000 
C264    C      C_R      0.21665    0.04966    0.82221    0.00000 
C265    C      C_R      0.09076    0.44986    0.98856    0.00000 
C266    C      C_R      0.03369    0.19724    0.82356    0.00000 
C267    C      C_R      0.15802    0.30209    0.98970    0.00000 
Ni268   Ni     Ni4+2    0.37350    0.37574    0.94544    0.00000 
Ni269   Ni     Ni4+2    0.49999    0.12400    0.77973    0.00000 
O270    O      O_R      0.31139    0.17384    0.79429    0.00000 
O271    O      O_R      0.43560    0.32549    0.96043    0.00000 
O272    O      O_R      0.43881    0.07375    0.79239    0.00000 
O273    O      O_R      0.31255    0.42618    0.95875    0.00000 
O274    O      O_R      0.48653    0.17808    0.82766    0.00000 
O275    O      O_R      0.36057    0.32071    0.99329    0.00000 
O276    O      O_R      0.26442    0.06758    0.82703    0.00000 
O277    O      O_R      0.38834    0.43138    0.99313    0.00000 
N278    N      N_R      0.40422    0.42563    0.90161    0.00000 
N279    N      N_R      0.28036    0.07443    0.73535    0.00000 
N280    N      N_R      0.34327    0.32516    0.90195    0.00000 
N281    N      N_R      0.46940    0.17546    0.73601    0.00000 
C282    C      C_R      0.39411    0.48503    0.84066    0.00000 
C283    C      C_R      0.26919    0.01555    0.67410    0.00000 
H284    H      H_       0.36856    0.49979    0.81437    0.00000 
H285    H      H_       0.49327    0.00135    0.98117    0.00000 
C286    C      C_R      0.44532    0.00589    0.84883    0.00000 
C287    C      C_R      0.32012    0.49387    0.68205    0.00000 
C288    C      C_R      0.47596    0.48510    0.88346    0.00000 
C289    C      C_R      0.35126    0.01418    0.71663    0.00000 
H290    H      H_       0.26603    0.49940    0.89117    0.00000 
H291    H      H_       0.39117    0.49933    0.72420    0.00000 
C292    C      C_R      0.35409    0.26485    0.84213    0.00000 
C293    C      C_R      0.47927    0.23570    0.67597    0.00000 
H294    H      H_       0.37935    0.25045    0.81643    0.00000 
H295    H      H_       0.25432    0.25020    0.98352    0.00000 
C296    C      C_R      0.37257    0.30667    0.86881    0.00000 
C297    C      C_R      0.49841    0.19434    0.70287    0.00000 
H298    H      H_       0.41132    0.32525    0.86421    0.00000 
C299    C      C_R      0.37474    0.44460    0.86773    0.00000 
C300    C      C_R      0.25053    0.05612    0.70142    0.00000 
H301    H      H_       0.33508    0.42756    0.86285    0.00000 
H302    H      H_       0.46116    0.07387    0.69663    0.00000 
C303    C      C_R      0.45399    0.44469    0.90918    0.00000 
C304    C      C_R      0.32997    0.05477    0.74260    0.00000 
C305    C      C_R      0.29443    0.30449    0.90912    0.00000 
C306    C      C_R      0.42045    0.19582    0.74313    0.00000 
C307    C      C_R      0.27346    0.26254    0.88377    0.00000 
C308    C      C_R      0.39883    0.23736    0.71758    0.00000 
H309    H      H_       0.48434    0.24662    0.89117    0.00000 
H310    H      H_       0.35948    0.25260    0.72509    0.00000 
C311    C      C_R      0.30408    0.24213    0.85004    0.00000 
C312    C      C_R      0.42892    0.25783    0.68355    0.00000 
C313    C      C_R      0.46665    0.04966    0.82221    0.00000 
C314    C      C_R      0.34076    0.44986    0.98856    0.00000 
C315    C      C_R      0.28369    0.19724    0.82356    0.00000 
C316    C      C_R      0.40802    0.30209    0.98970    0.00000 
F317    F      F_       0.07448    0.42371    0.85965    0.00000 
F318    F      F_       0.11067    0.07516    0.77653    0.00000 
F319    F      F_       0.01445    0.32519    0.94220    0.00000 
F320    F      F_       0.29792    0.17237    0.69540    0.00000 
F321    F      F_       0.48416    0.42382    0.94324    0.00000 
F322    F      F_       0.36067    0.07516    0.77654    0.00000 
F323    F      F_       0.26446    0.32519    0.94220    0.00000 
F324    F      F_       0.39077    0.17519    0.77649    0.00000 
Ni325   Ni     Ni4+2    0.12350    0.87574    0.27878    0.00000 
Ni326   Ni     Ni4+2    0.24999    0.62400    0.11306    0.00000 
O327    O      O_R      0.06139    0.67384    0.12762    0.00000 
O328    O      O_R      0.18560    0.82549    0.29376    0.00000 
O329    O      O_R      0.18882    0.57375    0.12573    0.00000 
O330    O      O_R      0.06255    0.92618    0.29209    0.00000 
O331    O      O_R      0.23653    0.67808    0.16100    0.00000 
O332    O      O_R      0.11057    0.82071    0.32663    0.00000 
O333    O      O_R      0.01442    0.56758    0.16036    0.00000 
O334    O      O_R      0.13834    0.93138    0.32647    0.00000 
N335    N      N_R      0.15422    0.92563    0.23494    0.00000 
N336    N      N_R      0.03036    0.57443    0.06868    0.00000 
N337    N      N_R      0.09327    0.82516    0.23528    0.00000 
N338    N      N_R      0.21940    0.67546    0.06935    0.00000 
C339    C      C_R      0.14411    0.98503    0.17399    0.00000 
C340    C      C_R      0.01919    0.51555    0.00744    0.00000 
H341    H      H_       0.11856    0.99979    0.14770    0.00000 
H342    H      H_       0.24327    0.50135    0.31450    0.00000 
C343    C      C_R      0.19532    0.50589    0.18216    0.00000 
C344    C      C_R      0.07012    0.99387    0.01538    0.00000 
C345    C      C_R      0.22596    0.98510    0.21679    0.00000 
C346    C      C_R      0.10126    0.51418    0.04996    0.00000 
H347    H      H_       0.01603    0.99940    0.22451    0.00000 
H348    H      H_       0.14117    0.99933    0.05753    0.00000 
C349    C      C_R      0.10409    0.76485    0.17546    0.00000 
C350    C      C_R      0.22927    0.73570    0.00930    0.00000 
H351    H      H_       0.12935    0.75045    0.14976    0.00000 
H352    H      H_       0.00432    0.75020    0.31685    0.00000 
C353    C      C_R      0.12257    0.80667    0.20214    0.00000 
C354    C      C_R      0.24841    0.69434    0.03621    0.00000 
H355    H      H_       0.16132    0.82525    0.19755    0.00000 
H356    H      H_       0.03748    0.67643    0.03168    0.00000 
C357    C      C_R      0.12474    0.94460    0.20107    0.00000 
C358    C      C_R      0.00053    0.55612    0.03475    0.00000 
H359    H      H_       0.21116    0.57387    0.02996    0.00000 
C360    C      C_R      0.20399    0.94469    0.24252    0.00000 
C361    C      C_R      0.07997    0.55477    0.07594    0.00000 
H362    H      H_       0.22669    0.92759    0.26959    0.00000 
C363    C      C_R      0.04443    0.80449    0.24245    0.00000 
C364    C      C_R      0.17044    0.69582    0.07646    0.00000 
H365    H      H_       0.14819    0.67876    0.10302    0.00000 
C366    C      C_R      0.02346    0.76254    0.21710    0.00000 
C367    C      C_R      0.14883    0.73736    0.05092    0.00000 
H368    H      H_       0.23434    0.74662    0.22450    0.00000 
H369    H      H_       0.10948    0.75260    0.05842    0.00000 
C370    C      C_R      0.05408    0.74213    0.18337    0.00000 
C371    C      C_R      0.17892    0.75783    0.01688    0.00000 
C372    C      C_R      0.21665    0.54966    0.15554    0.00000 
C373    C      C_R      0.09076    0.94986    0.32189    0.00000 
C374    C      C_R      0.03369    0.69724    0.15689    0.00000 
C375    C      C_R      0.15802    0.80209    0.32304    0.00000 
Ni376   Ni     Ni4+2    0.37350    0.87574    0.27878    0.00000 
Ni377   Ni     Ni4+2    0.49999    0.62400    0.11306    0.00000 
O378    O      O_R      0.31139    0.67384    0.12762    0.00000 
O379    O      O_R      0.43560    0.82549    0.29376    0.00000 
O380    O      O_R      0.43881    0.57375    0.12573    0.00000 
O381    O      O_R      0.31255    0.92618    0.29209    0.00000 
O382    O      O_R      0.48653    0.67808    0.16100    0.00000 
O383    O      O_R      0.36057    0.82071    0.32663    0.00000 
O384    O      O_R      0.26442    0.56758    0.16036    0.00000 
O385    O      O_R      0.38834    0.93138    0.32647    0.00000 
N386    N      N_R      0.40422    0.92563    0.23494    0.00000 
N387    N      N_R      0.28036    0.57443    0.06868    0.00000 
N388    N      N_R      0.34327    0.82516    0.23528    0.00000 
N389    N      N_R      0.46940    0.67546    0.06935    0.00000 
C390    C      C_R      0.39411    0.98503    0.17399    0.00000 
C391    C      C_R      0.26919    0.51555    0.00744    0.00000 
H392    H      H_       0.36856    0.99979    0.14770    0.00000 
H393    H      H_       0.49327    0.50135    0.31450    0.00000 
C394    C      C_R      0.44532    0.50589    0.18216    0.00000 
C395    C      C_R      0.32012    0.99387    0.01538    0.00000 
C396    C      C_R      0.47596    0.98510    0.21679    0.00000 
C397    C      C_R      0.35126    0.51418    0.04996    0.00000 
H398    H      H_       0.26603    0.99940    0.22451    0.00000 
H399    H      H_       0.39117    0.99933    0.05753    0.00000 
C400    C      C_R      0.35409    0.76485    0.17546    0.00000 
C401    C      C_R      0.47927    0.73570    0.00930    0.00000 
H402    H      H_       0.37935    0.75045    0.14976    0.00000 
H403    H      H_       0.25432    0.75020    0.31685    0.00000 
C404    C      C_R      0.37257    0.80667    0.20214    0.00000 
C405    C      C_R      0.49841    0.69434    0.03621    0.00000 
H406    H      H_       0.41132    0.82525    0.19755    0.00000 
C407    C      C_R      0.37474    0.94460    0.20107    0.00000 
C408    C      C_R      0.25053    0.55612    0.03475    0.00000 
H409    H      H_       0.33508    0.92756    0.19619    0.00000 
H410    H      H_       0.46116    0.57387    0.02996    0.00000 
C411    C      C_R      0.45399    0.94469    0.24252    0.00000 
C412    C      C_R      0.32997    0.55477    0.07594    0.00000 
C413    C      C_R      0.29443    0.80449    0.24245    0.00000 
C414    C      C_R      0.42044    0.69582    0.07646    0.00000 
C415    C      C_R      0.27346    0.76254    0.21710    0.00000 
C416    C      C_R      0.39883    0.73736    0.05092    0.00000 
H417    H      H_       0.48434    0.74662    0.22450    0.00000 
H418    H      H_       0.35948    0.75260    0.05842    0.00000 
C419    C      C_R      0.30408    0.74213    0.18337    0.00000 
C420    C      C_R      0.42892    0.75783    0.01688    0.00000 
C421    C      C_R      0.46665    0.54966    0.15554    0.00000 
C422    C      C_R      0.34076    0.94986    0.32189    0.00000 
C423    C      C_R      0.28369    0.69724    0.15689    0.00000 
C424    C      C_R      0.40802    0.80209    0.32304    0.00000 
F425    F      F_       0.07448    0.92371    0.19298    0.00000 
F426    F      F_       0.11067    0.57516    0.10987    0.00000 
F427    F      F_       0.01446    0.82519    0.27553    0.00000 
F428    F      F_       0.29792    0.67237    0.02874    0.00000 
F429    F      F_       0.48416    0.92382    0.27657    0.00000 
F430    F      F_       0.36067    0.57516    0.10987    0.00000 
F431    F      F_       0.26446    0.82519    0.27553    0.00000 
F432    F      F_       0.39077    0.67519    0.10982    0.00000 
Ni433   Ni     Ni4+2    0.12350    0.87574    0.61211    0.00000 
Ni434   Ni     Ni4+2    0.24999    0.62400    0.44639    0.00000 
O435    O      O_R      0.06139    0.67384    0.46096    0.00000 
O436    O      O_R      0.18560    0.82549    0.62710    0.00000 
O437    O      O_R      0.18881    0.57375    0.45906    0.00000 
O438    O      O_R      0.06255    0.92618    0.62542    0.00000 
O439    O      O_R      0.23653    0.67808    0.49433    0.00000 
O440    O      O_R      0.11057    0.82071    0.65996    0.00000 
O441    O      O_R      0.01442    0.56758    0.49369    0.00000 
O442    O      O_R      0.13834    0.93138    0.65980    0.00000 
N443    N      N_R      0.15422    0.92563    0.56828    0.00000 
N444    N      N_R      0.03036    0.57443    0.40202    0.00000 
N445    N      N_R      0.09327    0.82516    0.56861    0.00000 
N446    N      N_R      0.21940    0.67546    0.40268    0.00000 
C447    C      C_R      0.14411    0.98503    0.50733    0.00000 
C448    C      C_R      0.01919    0.51555    0.34077    0.00000 
H449    H      H_       0.11856    0.99979    0.48104    0.00000 
H450    H      H_       0.24327    0.50135    0.64783    0.00000 
C451    C      C_R      0.19532    0.50589    0.51550    0.00000 
C452    C      C_R      0.07012    0.99387    0.34872    0.00000 
C453    C      C_R      0.22596    0.98510    0.55012    0.00000 
C454    C      C_R      0.10126    0.51418    0.38330    0.00000 
H455    H      H_       0.01603    0.99940    0.55784    0.00000 
H456    H      H_       0.14117    0.99933    0.39087    0.00000 
C457    C      C_R      0.10409    0.76485    0.50879    0.00000 
C458    C      C_R      0.22927    0.73570    0.34263    0.00000 
H459    H      H_       0.12935    0.75045    0.48309    0.00000 
H460    H      H_       0.00432    0.75020    0.65018    0.00000 
C461    C      C_R      0.12257    0.80667    0.53548    0.00000 
C462    C      C_R      0.24841    0.69434    0.36954    0.00000 
H463    H      H_       0.16132    0.82525    0.53088    0.00000 
H464    H      H_       0.03748    0.67643    0.36501    0.00000 
C465    C      C_R      0.12474    0.94460    0.53440    0.00000 
C466    C      C_R      0.00053    0.55612    0.36808    0.00000 
H467    H      H_       0.21116    0.57387    0.36330    0.00000 
C468    C      C_R      0.20399    0.94469    0.57585    0.00000 
C469    C      C_R      0.07997    0.55477    0.40927    0.00000 
H470    H      H_       0.22668    0.92759    0.60292    0.00000 
C471    C      C_R      0.04443    0.80449    0.57578    0.00000 
C472    C      C_R      0.17044    0.69582    0.40980    0.00000 
H473    H      H_       0.14819    0.67876    0.43635    0.00000 
C474    C      C_R      0.02346    0.76254    0.55044    0.00000 
C475    C      C_R      0.14883    0.73736    0.38425    0.00000 
H476    H      H_       0.23434    0.74662    0.55783    0.00000 
H477    H      H_       0.10948    0.75260    0.39175    0.00000 
C478    C      C_R      0.05408    0.74213    0.51671    0.00000 
C479    C      C_R      0.17892    0.75783    0.35021    0.00000 
C480    C      C_R      0.21665    0.54966    0.48887    0.00000 
C481    C      C_R      0.09076    0.94986    0.65522    0.00000 
C482    C      C_R      0.03369    0.69724    0.49023    0.00000 
C483    C      C_R      0.15802    0.80209    0.65637    0.00000 
Ni484   Ni     Ni4+2    0.37350    0.87574    0.61211    0.00000 
Ni485   Ni     Ni4+2    0.49999    0.62400    0.44639    0.00000 
O486    O      O_R      0.31139    0.67384    0.46096    0.00000 
O487    O      O_R      0.43560    0.82549    0.62710    0.00000 
O488    O      O_R      0.43882    0.57375    0.45906    0.00000 
O489    O      O_R      0.31255    0.92618    0.62542    0.00000 
O490    O      O_R      0.48653    0.67808    0.49433    0.00000 
O491    O      O_R      0.36057    0.82071    0.65996    0.00000 
O492    O      O_R      0.26442    0.56758    0.49369    0.00000 
O493    O      O_R      0.38834    0.93138    0.65980    0.00000 
N494    N      N_R      0.40422    0.92563    0.56828    0.00000 
N495    N      N_R      0.28036    0.57443    0.40202    0.00000 
N496    N      N_R      0.34327    0.82516    0.56861    0.00000 
N497    N      N_R      0.46941    0.67546    0.40268    0.00000 
C498    C      C_R      0.39411    0.98503    0.50733    0.00000 
C499    C      C_R      0.26919    0.51555    0.34077    0.00000 
H500    H      H_       0.36856    0.99979    0.48104    0.00000 
H501    H      H_       0.49327    0.50135    0.64783    0.00000 
C502    C      C_R      0.44532    0.50589    0.51550    0.00000 
C503    C      C_R      0.32012    0.99387    0.34872    0.00000 
C504    C      C_R      0.47596    0.98510    0.55012    0.00000 
C505    C      C_R      0.35126    0.51418    0.38330    0.00000 
H506    H      H_       0.26603    0.99940    0.55784    0.00000 
H507    H      H_       0.39117    0.99933    0.39087    0.00000 
C508    C      C_R      0.35409    0.76485    0.50879    0.00000 
C509    C      C_R      0.47927    0.73570    0.34263    0.00000 
H510    H      H_       0.37935    0.75045    0.48309    0.00000 
H511    H      H_       0.25432    0.75020    0.65018    0.00000 
C512    C      C_R      0.37257    0.80667    0.53548    0.00000 
C513    C      C_R      0.49841    0.69434    0.36954    0.00000 
H514    H      H_       0.41132    0.82525    0.53088    0.00000 
C515    C      C_R      0.37474    0.94460    0.53440    0.00000 
C516    C      C_R      0.25053    0.55612    0.36808    0.00000 
H517    H      H_       0.33508    0.92756    0.52952    0.00000 
H518    H      H_       0.46116    0.57387    0.36330    0.00000 
C519    C      C_R      0.45399    0.94469    0.57585    0.00000 
C520    C      C_R      0.32997    0.55477    0.40927    0.00000 
C521    C      C_R      0.29443    0.80449    0.57578    0.00000 
C522    C      C_R      0.42045    0.69582    0.40980    0.00000 
C523    C      C_R      0.27346    0.76254    0.55044    0.00000 
C524    C      C_R      0.39883    0.73736    0.38425    0.00000 
H525    H      H_       0.48434    0.74662    0.55783    0.00000 
H526    H      H_       0.35948    0.75260    0.39175    0.00000 
C527    C      C_R      0.30408    0.74213    0.51671    0.00000 
C528    C      C_R      0.42892    0.75783    0.35021    0.00000 
C529    C      C_R      0.46665    0.54966    0.48887    0.00000 
C530    C      C_R      0.34076    0.94986    0.65522    0.00000 
C531    C      C_R      0.28369    0.69724    0.49023    0.00000 
C532    C      C_R      0.40802    0.80209    0.65637    0.00000 
F533    F      F_       0.07448    0.92371    0.52631    0.00000 
F534    F      F_       0.11067    0.57516    0.44320    0.00000 
F535    F      F_       0.01446    0.82519    0.60886    0.00000 
F536    F      F_       0.29792    0.67237    0.36207    0.00000 
F537    F      F_       0.48416    0.92382    0.60990    0.00000 
F538    F      F_       0.36067    0.57516    0.44320    0.00000 
F539    F      F_       0.26446    0.82519    0.60886    0.00000 
F540    F      F_       0.39077    0.67519    0.44316    0.00000 
Ni541   Ni     Ni4+2    0.12350    0.87574    0.94544    0.00000 
Ni542   Ni     Ni4+2    0.24999    0.62400    0.77973    0.00000 
O543    O      O_R      0.06139    0.67384    0.79429    0.00000 
O544    O      O_R      0.18560    0.82549    0.96043    0.00000 
O545    O      O_R      0.18881    0.57375    0.79239    0.00000 
O546    O      O_R      0.06255    0.92618    0.95875    0.00000 
O547    O      O_R      0.23653    0.67808    0.82766    0.00000 
O548    O      O_R      0.11057    0.82071    0.99329    0.00000 
O549    O      O_R      0.01442    0.56758    0.82703    0.00000 
O550    O      O_R      0.13834    0.93138    0.99313    0.00000 
N551    N      N_R      0.15422    0.92563    0.90161    0.00000 
N552    N      N_R      0.03036    0.57443    0.73535    0.00000 
N553    N      N_R      0.09327    0.82515    0.90195    0.00000 
N554    N      N_R      0.21940    0.67546    0.73601    0.00000 
C555    C      C_R      0.14411    0.98503    0.84066    0.00000 
C556    C      C_R      0.01919    0.51555    0.67410    0.00000 
H557    H      H_       0.11856    0.99979    0.81437    0.00000 
H558    H      H_       0.24327    0.50135    0.98117    0.00000 
C559    C      C_R      0.19532    0.50588    0.84883    0.00000 
C560    C      C_R      0.07012    0.99387    0.68205    0.00000 
C561    C      C_R      0.22596    0.98510    0.88346    0.00000 
C562    C      C_R      0.10126    0.51418    0.71663    0.00000 
H563    H      H_       0.01603    0.99940    0.89117    0.00000 
H564    H      H_       0.14117    0.99933    0.72420    0.00000 
C565    C      C_R      0.10409    0.76485    0.84213    0.00000 
C566    C      C_R      0.22927    0.73570    0.67597    0.00000 
H567    H      H_       0.12935    0.75045    0.81643    0.00000 
H568    H      H_       0.00432    0.75020    0.98352    0.00000 
C569    C      C_R      0.12257    0.80667    0.86881    0.00000 
C570    C      C_R      0.24841    0.69434    0.70287    0.00000 
H571    H      H_       0.16132    0.82525    0.86421    0.00000 
H572    H      H_       0.03748    0.67643    0.69834    0.00000 
C573    C      C_R      0.12474    0.94460    0.86773    0.00000 
C574    C      C_R      0.00053    0.55612    0.70142    0.00000 
H575    H      H_       0.21116    0.57387    0.69663    0.00000 
C576    C      C_R      0.20399    0.94469    0.90918    0.00000 
C577    C      C_R      0.07997    0.55477    0.74260    0.00000 
H578    H      H_       0.22669    0.92759    0.93625    0.00000 
C579    C      C_R      0.04443    0.80449    0.90912    0.00000 
C580    C      C_R      0.17044    0.69582    0.74313    0.00000 
H581    H      H_       0.14819    0.67876    0.76968    0.00000 
C582    C      C_R      0.02346    0.76254    0.88377    0.00000 
C583    C      C_R      0.14883    0.73736    0.71758    0.00000 
H584    H      H_       0.23434    0.74662    0.89117    0.00000 
H585    H      H_       0.10948    0.75260    0.72509    0.00000 
C586    C      C_R      0.05408    0.74213    0.85004    0.00000 
C587    C      C_R      0.17892    0.75783    0.68355    0.00000 
C588    C      C_R      0.21666    0.54966    0.82221    0.00000 
C589    C      C_R      0.09076    0.94986    0.98856    0.00000 
C590    C      C_R      0.03369    0.69724    0.82356    0.00000 
C591    C      C_R      0.15802    0.80209    0.98970    0.00000 
Ni592   Ni     Ni4+2    0.37350    0.87574    0.94544    0.00000 
Ni593   Ni     Ni4+2    0.49999    0.62400    0.77973    0.00000 
O594    O      O_R      0.31139    0.67384    0.79429    0.00000 
O595    O      O_R      0.43560    0.82549    0.96043    0.00000 
O596    O      O_R      0.43881    0.57375    0.79239    0.00000 
O597    O      O_R      0.31255    0.92618    0.95875    0.00000 
O598    O      O_R      0.48653    0.67808    0.82766    0.00000 
O599    O      O_R      0.36057    0.82071    0.99329    0.00000 
O600    O      O_R      0.26442    0.56758    0.82703    0.00000 
O601    O      O_R      0.38834    0.93138    0.99313    0.00000 
N602    N      N_R      0.40422    0.92563    0.90161    0.00000 
N603    N      N_R      0.28036    0.57443    0.73535    0.00000 
N604    N      N_R      0.34327    0.82515    0.90195    0.00000 
N605    N      N_R      0.46940    0.67546    0.73601    0.00000 
C606    C      C_R      0.39411    0.98503    0.84066    0.00000 
C607    C      C_R      0.26919    0.51555    0.67410    0.00000 
H608    H      H_       0.36856    0.99979    0.81437    0.00000 
H609    H      H_       0.49327    0.50135    0.98117    0.00000 
C610    C      C_R      0.44532    0.50588    0.84883    0.00000 
C611    C      C_R      0.32012    0.99387    0.68205    0.00000 
C612    C      C_R      0.47596    0.98510    0.88346    0.00000 
C613    C      C_R      0.35126    0.51418    0.71663    0.00000 
H614    H      H_       0.26603    0.99940    0.89117    0.00000 
H615    H      H_       0.39117    0.99933    0.72420    0.00000 
C616    C      C_R      0.35409    0.76485    0.84213    0.00000 
C617    C      C_R      0.47927    0.73570    0.67597    0.00000 
H618    H      H_       0.37935    0.75045    0.81643    0.00000 
H619    H      H_       0.25432    0.75020    0.98352    0.00000 
C620    C      C_R      0.37257    0.80667    0.86881    0.00000 
C621    C      C_R      0.49841    0.69434    0.70287    0.00000 
H622    H      H_       0.41132    0.82525    0.86421    0.00000 
C623    C      C_R      0.37474    0.94460    0.86773    0.00000 
C624    C      C_R      0.25053    0.55612    0.70142    0.00000 
H625    H      H_       0.33508    0.92756    0.86285    0.00000 
H626    H      H_       0.46116    0.57387    0.69663    0.00000 
C627    C      C_R      0.45399    0.94469    0.90918    0.00000 
C628    C      C_R      0.32997    0.55477    0.74260    0.00000 
C629    C      C_R      0.29443    0.80449    0.90912    0.00000 
C630    C      C_R      0.42045    0.69582    0.74313    0.00000 
C631    C      C_R      0.27346    0.76254    0.88377    0.00000 
C632    C      C_R      0.39883    0.73736    0.71758    0.00000 
H633    H      H_       0.48434    0.74662    0.89117    0.00000 
H634    H      H_       0.35948    0.75260    0.72509    0.00000 
C635    C      C_R      0.30408    0.74213    0.85004    0.00000 
C636    C      C_R      0.42892    0.75783    0.68355    0.00000 
C637    C      C_R      0.46665    0.54966    0.82221    0.00000 
C638    C      C_R      0.34076    0.94986    0.98856    0.00000 
C639    C      C_R      0.28369    0.69724    0.82356    0.00000 
C640    C      C_R      0.40802    0.80209    0.98970    0.00000 
F641    F      F_       0.07448    0.92371    0.85965    0.00000 
F642    F      F_       0.11067    0.57516    0.77653    0.00000 
F643    F      F_       0.01445    0.82519    0.94220    0.00000 
F644    F      F_       0.29792    0.67237    0.69540    0.00000 
F645    F      F_       0.48416    0.92382    0.94324    0.00000 
F646    F      F_       0.36067    0.57516    0.77654    0.00000 
F647    F      F_       0.26446    0.82519    0.94220    0.00000 
F648    F      F_       0.39077    0.67519    0.77649    0.00000 
Ni649   Ni     Ni4+2    0.62350    0.37574    0.27878    0.00000 
Ni650   Ni     Ni4+2    0.74999    0.12400    0.11306    0.00000 
O651    O      O_R      0.56139    0.17384    0.12762    0.00000 
O652    O      O_R      0.68560    0.32549    0.29376    0.00000 
O653    O      O_R      0.68881    0.07375    0.12573    0.00000 
O654    O      O_R      0.56255    0.42618    0.29209    0.00000 
O655    O      O_R      0.73653    0.17808    0.16100    0.00000 
O656    O      O_R      0.61057    0.32071    0.32663    0.00000 
O657    O      O_R      0.51442    0.06758    0.16036    0.00000 
O658    O      O_R      0.63834    0.43138    0.32647    0.00000 
N659    N      N_R      0.65422    0.42563    0.23494    0.00000 
N660    N      N_R      0.53036    0.07443    0.06868    0.00000 
N661    N      N_R      0.59327    0.32515    0.23528    0.00000 
N662    N      N_R      0.71940    0.17546    0.06935    0.00000 
C663    C      C_R      0.64411    0.48502    0.17399    0.00000 
C664    C      C_R      0.51919    0.01555    0.00744    0.00000 
H665    H      H_       0.61856    0.49979    0.14770    0.00000 
H666    H      H_       0.74327    0.00135    0.31450    0.00000 
C667    C      C_R      0.69532    0.00589    0.18216    0.00000 
C668    C      C_R      0.57012    0.49387    0.01538    0.00000 
C669    C      C_R      0.72596    0.48510    0.21679    0.00000 
C670    C      C_R      0.60126    0.01418    0.04996    0.00000 
H671    H      H_       0.51603    0.49940    0.22451    0.00000 
H672    H      H_       0.64117    0.49933    0.05753    0.00000 
C673    C      C_R      0.60409    0.26485    0.17546    0.00000 
C674    C      C_R      0.72927    0.23570    0.00930    0.00000 
H675    H      H_       0.62935    0.25045    0.14976    0.00000 
H676    H      H_       0.50432    0.25020    0.31685    0.00000 
C677    C      C_R      0.62257    0.30667    0.20214    0.00000 
C678    C      C_R      0.74841    0.19434    0.03621    0.00000 
H679    H      H_       0.66132    0.32525    0.19755    0.00000 
H680    H      H_       0.53748    0.17643    0.03168    0.00000 
C681    C      C_R      0.62474    0.44460    0.20107    0.00000 
C682    C      C_R      0.50053    0.05612    0.03475    0.00000 
H683    H      H_       0.71116    0.07387    0.02996    0.00000 
C684    C      C_R      0.70399    0.44469    0.24252    0.00000 
C685    C      C_R      0.57997    0.05477    0.07594    0.00000 
H686    H      H_       0.72669    0.42759    0.26959    0.00000 
C687    C      C_R      0.54443    0.30449    0.24245    0.00000 
C688    C      C_R      0.67044    0.19582    0.07646    0.00000 
H689    H      H_       0.64819    0.17876    0.10302    0.00000 
C690    C      C_R      0.52346    0.26254    0.21710    0.00000 
C691    C      C_R      0.64883    0.23736    0.05092    0.00000 
H692    H      H_       0.73434    0.24662    0.22450    0.00000 
H693    H      H_       0.60948    0.25260    0.05842    0.00000 
C694    C      C_R      0.55408    0.24213    0.18337    0.00000 
C695    C      C_R      0.67892    0.25783    0.01688    0.00000 
C696    C      C_R      0.71665    0.04966    0.15554    0.00000 
C697    C      C_R      0.59076    0.44986    0.32189    0.00000 
C698    C      C_R      0.53369    0.19724    0.15689    0.00000 
C699    C      C_R      0.65802    0.30209    0.32304    0.00000 
Ni700   Ni     Ni4+2    0.87350    0.37574    0.27878    0.00000 
Ni701   Ni     Ni4+2    0.99999    0.12400    0.11306    0.00000 
O702    O      O_R      0.81139    0.17384    0.12762    0.00000 
O703    O      O_R      0.93560    0.32549    0.29376    0.00000 
O704    O      O_R      0.93881    0.07375    0.12573    0.00000 
O705    O      O_R      0.81255    0.42618    0.29209    0.00000 
O706    O      O_R      0.98653    0.17808    0.16100    0.00000 
O707    O      O_R      0.86057    0.32071    0.32663    0.00000 
O708    O      O_R      0.76442    0.06758    0.16036    0.00000 
O709    O      O_R      0.88834    0.43138    0.32647    0.00000 
N710    N      N_R      0.90422    0.42563    0.23494    0.00000 
N711    N      N_R      0.78036    0.07443    0.06868    0.00000 
N712    N      N_R      0.84327    0.32515    0.23528    0.00000 
N713    N      N_R      0.96940    0.17546    0.06935    0.00000 
C714    C      C_R      0.89411    0.48502    0.17399    0.00000 
C715    C      C_R      0.76919    0.01555    0.00744    0.00000 
H716    H      H_       0.86856    0.49979    0.14770    0.00000 
H717    H      H_       0.99327    0.00135    0.31450    0.00000 
C718    C      C_R      0.94532    0.00589    0.18216    0.00000 
C719    C      C_R      0.82012    0.49387    0.01538    0.00000 
C720    C      C_R      0.97596    0.48510    0.21679    0.00000 
C721    C      C_R      0.85126    0.01418    0.04996    0.00000 
H722    H      H_       0.76603    0.49940    0.22451    0.00000 
H723    H      H_       0.89117    0.49933    0.05753    0.00000 
C724    C      C_R      0.85409    0.26485    0.17546    0.00000 
C725    C      C_R      0.97927    0.23570    0.00930    0.00000 
H726    H      H_       0.87935    0.25045    0.14976    0.00000 
H727    H      H_       0.75432    0.25020    0.31685    0.00000 
C728    C      C_R      0.87257    0.30667    0.20214    0.00000 
C729    C      C_R      0.99841    0.19434    0.03621    0.00000 
H730    H      H_       0.91132    0.32525    0.19755    0.00000 
C731    C      C_R      0.87474    0.44460    0.20107    0.00000 
C732    C      C_R      0.75053    0.05612    0.03475    0.00000 
H733    H      H_       0.83508    0.42756    0.19619    0.00000 
H734    H      H_       0.96116    0.07387    0.02996    0.00000 
C735    C      C_R      0.95399    0.44469    0.24252    0.00000 
C736    C      C_R      0.82997    0.05477    0.07594    0.00000 
C737    C      C_R      0.79443    0.30449    0.24245    0.00000 
C738    C      C_R      0.92044    0.19582    0.07646    0.00000 
C739    C      C_R      0.77346    0.26254    0.21710    0.00000 
C740    C      C_R      0.89883    0.23736    0.05092    0.00000 
H741    H      H_       0.98434    0.24662    0.22450    0.00000 
H742    H      H_       0.85948    0.25260    0.05842    0.00000 
C743    C      C_R      0.80408    0.24213    0.18337    0.00000 
C744    C      C_R      0.92892    0.25783    0.01688    0.00000 
C745    C      C_R      0.96665    0.04966    0.15554    0.00000 
C746    C      C_R      0.84076    0.44986    0.32189    0.00000 
C747    C      C_R      0.78369    0.19724    0.15689    0.00000 
C748    C      C_R      0.90802    0.30209    0.32304    0.00000 
F749    F      F_       0.57448    0.42371    0.19298    0.00000 
F750    F      F_       0.61067    0.07516    0.10987    0.00000 
F751    F      F_       0.51445    0.32519    0.27553    0.00000 
F752    F      F_       0.79792    0.17237    0.02874    0.00000 
F753    F      F_       0.98416    0.42382    0.27657    0.00000 
F754    F      F_       0.86067    0.07516    0.10987    0.00000 
F755    F      F_       0.76446    0.32519    0.27553    0.00000 
F756    F      F_       0.89077    0.17519    0.10982    0.00000 
Ni757   Ni     Ni4+2    0.62350    0.37574    0.61211    0.00000 
Ni758   Ni     Ni4+2    0.74999    0.12400    0.44639    0.00000 
O759    O      O_R      0.56139    0.17384    0.46096    0.00000 
O760    O      O_R      0.68560    0.32549    0.62710    0.00000 
O761    O      O_R      0.68881    0.07375    0.45906    0.00000 
O762    O      O_R      0.56255    0.42618    0.62542    0.00000 
O763    O      O_R      0.73653    0.17808    0.49433    0.00000 
O764    O      O_R      0.61057    0.32071    0.65996    0.00000 
O765    O      O_R      0.51442    0.06758    0.49369    0.00000 
O766    O      O_R      0.63834    0.43138    0.65980    0.00000 
N767    N      N_R      0.65422    0.42563    0.56828    0.00000 
N768    N      N_R      0.53036    0.07443    0.40202    0.00000 
N769    N      N_R      0.59327    0.32515    0.56861    0.00000 
N770    N      N_R      0.71940    0.17546    0.40268    0.00000 
C771    C      C_R      0.64411    0.48502    0.50733    0.00000 
C772    C      C_R      0.51919    0.01555    0.34077    0.00000 
H773    H      H_       0.61856    0.49979    0.48104    0.00000 
H774    H      H_       0.74327    0.00135    0.64783    0.00000 
C775    C      C_R      0.69532    0.00588    0.51550    0.00000 
C776    C      C_R      0.57012    0.49387    0.34872    0.00000 
C777    C      C_R      0.72596    0.48510    0.55012    0.00000 
C778    C      C_R      0.60126    0.01418    0.38330    0.00000 
H779    H      H_       0.51603    0.49940    0.55784    0.00000 
H780    H      H_       0.64117    0.49933    0.39087    0.00000 
C781    C      C_R      0.60409    0.26485    0.50879    0.00000 
C782    C      C_R      0.72927    0.23570    0.34263    0.00000 
H783    H      H_       0.62935    0.25045    0.48309    0.00000 
H784    H      H_       0.50432    0.25020    0.65018    0.00000 
C785    C      C_R      0.62257    0.30667    0.53548    0.00000 
C786    C      C_R      0.74841    0.19434    0.36954    0.00000 
H787    H      H_       0.66132    0.32525    0.53088    0.00000 
H788    H      H_       0.53748    0.17643    0.36501    0.00000 
C789    C      C_R      0.62474    0.44460    0.53440    0.00000 
C790    C      C_R      0.50053    0.05612    0.36808    0.00000 
H791    H      H_       0.71116    0.07387    0.36330    0.00000 
C792    C      C_R      0.70399    0.44469    0.57585    0.00000 
C793    C      C_R      0.57997    0.05477    0.40927    0.00000 
H794    H      H_       0.72669    0.42759    0.60292    0.00000 
C795    C      C_R      0.54443    0.30449    0.57578    0.00000 
C796    C      C_R      0.67044    0.19582    0.40980    0.00000 
H797    H      H_       0.64819    0.17876    0.43635    0.00000 
C798    C      C_R      0.52346    0.26254    0.55044    0.00000 
C799    C      C_R      0.64883    0.23736    0.38425    0.00000 
H800    H      H_       0.73434    0.24662    0.55783    0.00000 
H801    H      H_       0.60948    0.25260    0.39175    0.00000 
C802    C      C_R      0.55408    0.24213    0.51671    0.00000 
C803    C      C_R      0.67892    0.25783    0.35021    0.00000 
C804    C      C_R      0.71665    0.04966    0.48887    0.00000 
C805    C      C_R      0.59076    0.44986    0.65522    0.00000 
C806    C      C_R      0.53369    0.19724    0.49023    0.00000 
C807    C      C_R      0.65802    0.30209    0.65637    0.00000 
Ni808   Ni     Ni4+2    0.87350    0.37574    0.61211    0.00000 
Ni809   Ni     Ni4+2    0.99999    0.12400    0.44639    0.00000 
O810    O      O_R      0.81139    0.17384    0.46096    0.00000 
O811    O      O_R      0.93560    0.32549    0.62710    0.00000 
O812    O      O_R      0.93881    0.07375    0.45906    0.00000 
O813    O      O_R      0.81255    0.42618    0.62542    0.00000 
O814    O      O_R      0.98653    0.17808    0.49433    0.00000 
O815    O      O_R      0.86057    0.32071    0.65996    0.00000 
O816    O      O_R      0.76442    0.06758    0.49369    0.00000 
O817    O      O_R      0.88834    0.43138    0.65980    0.00000 
N818    N      N_R      0.90422    0.42563    0.56828    0.00000 
N819    N      N_R      0.78036    0.07443    0.40202    0.00000 
N820    N      N_R      0.84327    0.32515    0.56861    0.00000 
N821    N      N_R      0.96940    0.17546    0.40268    0.00000 
C822    C      C_R      0.89411    0.48502    0.50733    0.00000 
C823    C      C_R      0.76919    0.01555    0.34077    0.00000 
H824    H      H_       0.86856    0.49979    0.48104    0.00000 
H825    H      H_       0.99327    0.00135    0.64783    0.00000 
C826    C      C_R      0.94532    0.00588    0.51550    0.00000 
C827    C      C_R      0.82012    0.49387    0.34872    0.00000 
C828    C      C_R      0.97596    0.48510    0.55012    0.00000 
C829    C      C_R      0.85126    0.01418    0.38330    0.00000 
H830    H      H_       0.76603    0.49940    0.55784    0.00000 
H831    H      H_       0.89117    0.49933    0.39087    0.00000 
C832    C      C_R      0.85409    0.26485    0.50879    0.00000 
C833    C      C_R      0.97927    0.23570    0.34263    0.00000 
H834    H      H_       0.87935    0.25045    0.48309    0.00000 
H835    H      H_       0.75432    0.25020    0.65018    0.00000 
C836    C      C_R      0.87257    0.30667    0.53548    0.00000 
C837    C      C_R      0.99841    0.19434    0.36954    0.00000 
H838    H      H_       0.91132    0.32525    0.53088    0.00000 
C839    C      C_R      0.87474    0.44460    0.53440    0.00000 
C840    C      C_R      0.75053    0.05612    0.36808    0.00000 
H841    H      H_       0.83508    0.42756    0.52952    0.00000 
H842    H      H_       0.96116    0.07387    0.36330    0.00000 
C843    C      C_R      0.95399    0.44469    0.57585    0.00000 
C844    C      C_R      0.82997    0.05477    0.40927    0.00000 
C845    C      C_R      0.79443    0.30449    0.57578    0.00000 
C846    C      C_R      0.92044    0.19582    0.40980    0.00000 
C847    C      C_R      0.77346    0.26254    0.55044    0.00000 
C848    C      C_R      0.89883    0.23736    0.38425    0.00000 
H849    H      H_       0.98434    0.24662    0.55783    0.00000 
H850    H      H_       0.85948    0.25260    0.39175    0.00000 
C851    C      C_R      0.80408    0.24213    0.51671    0.00000 
C852    C      C_R      0.92892    0.25783    0.35021    0.00000 
C853    C      C_R      0.96665    0.04966    0.48887    0.00000 
C854    C      C_R      0.84076    0.44986    0.65522    0.00000 
C855    C      C_R      0.78369    0.19724    0.49023    0.00000 
C856    C      C_R      0.90802    0.30209    0.65637    0.00000 
F857    F      F_       0.57448    0.42371    0.52631    0.00000 
F858    F      F_       0.61067    0.07516    0.44320    0.00000 
F859    F      F_       0.51445    0.32519    0.60886    0.00000 
F860    F      F_       0.79792    0.17237    0.36207    0.00000 
F861    F      F_       0.98416    0.42382    0.60990    0.00000 
F862    F      F_       0.86067    0.07516    0.44320    0.00000 
F863    F      F_       0.76446    0.32519    0.60886    0.00000 
F864    F      F_       0.89077    0.17519    0.44316    0.00000 
Ni865   Ni     Ni4+2    0.62350    0.37574    0.94544    0.00000 
Ni866   Ni     Ni4+2    0.74999    0.12400    0.77973    0.00000 
O867    O      O_R      0.56139    0.17384    0.79429    0.00000 
O868    O      O_R      0.68560    0.32549    0.96043    0.00000 
O869    O      O_R      0.68881    0.07375    0.79239    0.00000 
O870    O      O_R      0.56255    0.42618    0.95875    0.00000 
O871    O      O_R      0.73653    0.17808    0.82766    0.00000 
O872    O      O_R      0.61057    0.32071    0.99329    0.00000 
O873    O      O_R      0.51442    0.06758    0.82703    0.00000 
O874    O      O_R      0.63834    0.43138    0.99313    0.00000 
N875    N      N_R      0.65422    0.42563    0.90161    0.00000 
N876    N      N_R      0.53036    0.07443    0.73535    0.00000 
N877    N      N_R      0.59327    0.32516    0.90195    0.00000 
N878    N      N_R      0.71940    0.17546    0.73601    0.00000 
C879    C      C_R      0.64411    0.48503    0.84066    0.00000 
C880    C      C_R      0.51919    0.01555    0.67410    0.00000 
H881    H      H_       0.61856    0.49979    0.81437    0.00000 
H882    H      H_       0.74327    0.00135    0.98117    0.00000 
C883    C      C_R      0.69532    0.00589    0.84883    0.00000 
C884    C      C_R      0.57012    0.49387    0.68205    0.00000 
C885    C      C_R      0.72596    0.48510    0.88346    0.00000 
C886    C      C_R      0.60126    0.01418    0.71663    0.00000 
H887    H      H_       0.51603    0.49940    0.89117    0.00000 
H888    H      H_       0.64117    0.49933    0.72420    0.00000 
C889    C      C_R      0.60409    0.26485    0.84213    0.00000 
C890    C      C_R      0.72927    0.23570    0.67597    0.00000 
H891    H      H_       0.62935    0.25045    0.81643    0.00000 
H892    H      H_       0.50432    0.25020    0.98352    0.00000 
C893    C      C_R      0.62257    0.30667    0.86881    0.00000 
C894    C      C_R      0.74841    0.19434    0.70287    0.00000 
H895    H      H_       0.66132    0.32525    0.86421    0.00000 
H896    H      H_       0.53748    0.17643    0.69834    0.00000 
C897    C      C_R      0.62474    0.44460    0.86773    0.00000 
C898    C      C_R      0.50053    0.05612    0.70142    0.00000 
H899    H      H_       0.71116    0.07387    0.69663    0.00000 
C900    C      C_R      0.70399    0.44469    0.90918    0.00000 
C901    C      C_R      0.57997    0.05477    0.74260    0.00000 
H902    H      H_       0.72669    0.42759    0.93625    0.00000 
C903    C      C_R      0.54443    0.30449    0.90912    0.00000 
C904    C      C_R      0.67044    0.19582    0.74313    0.00000 
H905    H      H_       0.64819    0.17876    0.76968    0.00000 
C906    C      C_R      0.52346    0.26254    0.88377    0.00000 
C907    C      C_R      0.64883    0.23736    0.71758    0.00000 
H908    H      H_       0.73434    0.24662    0.89117    0.00000 
H909    H      H_       0.60948    0.25260    0.72509    0.00000 
C910    C      C_R      0.55408    0.24213    0.85004    0.00000 
C911    C      C_R      0.67892    0.25783    0.68355    0.00000 
C912    C      C_R      0.71666    0.04966    0.82221    0.00000 
C913    C      C_R      0.59076    0.44986    0.98856    0.00000 
C914    C      C_R      0.53369    0.19724    0.82356    0.00000 
C915    C      C_R      0.65802    0.30209    0.98970    0.00000 
Ni916   Ni     Ni4+2    0.87350    0.37574    0.94544    0.00000 
Ni917   Ni     Ni4+2    0.99999    0.12400    0.77973    0.00000 
O918    O      O_R      0.81139    0.17384    0.79429    0.00000 
O919    O      O_R      0.93560    0.32549    0.96043    0.00000 
O920    O      O_R      0.93881    0.07375    0.79239    0.00000 
O921    O      O_R      0.81255    0.42618    0.95875    0.00000 
O922    O      O_R      0.98653    0.17808    0.82766    0.00000 
O923    O      O_R      0.86057    0.32071    0.99329    0.00000 
O924    O      O_R      0.76442    0.06758    0.82703    0.00000 
O925    O      O_R      0.88834    0.43138    0.99313    0.00000 
N926    N      N_R      0.90422    0.42563    0.90161    0.00000 
N927    N      N_R      0.78036    0.07443    0.73535    0.00000 
N928    N      N_R      0.84327    0.32516    0.90195    0.00000 
N929    N      N_R      0.96941    0.17546    0.73601    0.00000 
C930    C      C_R      0.89411    0.48503    0.84066    0.00000 
C931    C      C_R      0.76919    0.01555    0.67410    0.00000 
H932    H      H_       0.86856    0.49979    0.81437    0.00000 
H933    H      H_       0.99327    0.00135    0.98117    0.00000 
C934    C      C_R      0.94532    0.00589    0.84883    0.00000 
C935    C      C_R      0.82012    0.49387    0.68205    0.00000 
C936    C      C_R      0.97596    0.48510    0.88346    0.00000 
C937    C      C_R      0.85126    0.01418    0.71663    0.00000 
H938    H      H_       0.76603    0.49940    0.89117    0.00000 
H939    H      H_       0.89117    0.49933    0.72420    0.00000 
C940    C      C_R      0.85409    0.26485    0.84213    0.00000 
C941    C      C_R      0.97927    0.23570    0.67597    0.00000 
H942    H      H_       0.87935    0.25045    0.81643    0.00000 
H943    H      H_       0.75432    0.25020    0.98352    0.00000 
C944    C      C_R      0.87257    0.30667    0.86881    0.00000 
C945    C      C_R      0.99841    0.19434    0.70287    0.00000 
H946    H      H_       0.91132    0.32525    0.86421    0.00000 
C947    C      C_R      0.87474    0.44460    0.86773    0.00000 
C948    C      C_R      0.75053    0.05612    0.70142    0.00000 
H949    H      H_       0.83508    0.42756    0.86285    0.00000 
H950    H      H_       0.96116    0.07387    0.69663    0.00000 
C951    C      C_R      0.95399    0.44469    0.90918    0.00000 
C952    C      C_R      0.82997    0.05477    0.74260    0.00000 
C953    C      C_R      0.79443    0.30449    0.90912    0.00000 
C954    C      C_R      0.92044    0.19582    0.74313    0.00000 
C955    C      C_R      0.77346    0.26254    0.88377    0.00000 
C956    C      C_R      0.89883    0.23736    0.71758    0.00000 
H957    H      H_       0.98434    0.24662    0.89117    0.00000 
H958    H      H_       0.85948    0.25260    0.72509    0.00000 
C959    C      C_R      0.80408    0.24213    0.85004    0.00000 
C960    C      C_R      0.92892    0.25783    0.68355    0.00000 
C961    C      C_R      0.96665    0.04966    0.82221    0.00000 
C962    C      C_R      0.84076    0.44986    0.98856    0.00000 
C963    C      C_R      0.78369    0.19724    0.82356    0.00000 
C964    C      C_R      0.90802    0.30209    0.98970    0.00000 
F965    F      F_       0.57448    0.42371    0.85965    0.00000 
F966    F      F_       0.61067    0.07516    0.77653    0.00000 
F967    F      F_       0.51445    0.32519    0.94220    0.00000 
F968    F      F_       0.79792    0.17237    0.69540    0.00000 
F969    F      F_       0.98416    0.42382    0.94324    0.00000 
F970    F      F_       0.86067    0.07516    0.77654    0.00000 
F971    F      F_       0.76446    0.32519    0.94220    0.00000 
F972    F      F_       0.89077    0.17519    0.77649    0.00000 
Ni973   Ni     Ni4+2    0.62350    0.87574    0.27878    0.00000 
Ni974   Ni     Ni4+2    0.74999    0.62400    0.11306    0.00000 
O975    O      O_R      0.56139    0.67384    0.12762    0.00000 
O976    O      O_R      0.68560    0.82549    0.29376    0.00000 
O977    O      O_R      0.68881    0.57375    0.12573    0.00000 
O978    O      O_R      0.56255    0.92618    0.29209    0.00000 
O979    O      O_R      0.73653    0.67808    0.16100    0.00000 
O980    O      O_R      0.61057    0.82071    0.32663    0.00000 
O981    O      O_R      0.51442    0.56758    0.16036    0.00000 
O982    O      O_R      0.63834    0.93138    0.32647    0.00000 
N983    N      N_R      0.65422    0.92563    0.23494    0.00000 
N984    N      N_R      0.53036    0.57443    0.06868    0.00000 
N985    N      N_R      0.59327    0.82516    0.23528    0.00000 
N986    N      N_R      0.71940    0.67546    0.06935    0.00000 
C987    C      C_R      0.64411    0.98503    0.17399    0.00000 
C988    C      C_R      0.51919    0.51555    0.00744    0.00000 
H989    H      H_       0.61856    0.99979    0.14770    0.00000 
H990    H      H_       0.74327    0.50135    0.31450    0.00000 
C991    C      C_R      0.69532    0.50589    0.18216    0.00000 
C992    C      C_R      0.57012    0.99387    0.01538    0.00000 
C993    C      C_R      0.72596    0.98510    0.21679    0.00000 
C994    C      C_R      0.60126    0.51418    0.04996    0.00000 
H995    H      H_       0.51603    0.99940    0.22451    0.00000 
H996    H      H_       0.64117    0.99933    0.05753    0.00000 
C997    C      C_R      0.60409    0.76485    0.17546    0.00000 
C998    C      C_R      0.72927    0.73570    0.00930    0.00000 
H999    H      H_       0.62935    0.75045    0.14976    0.00000 
H1000   H      H_       0.50432    0.75020    0.31685    0.00000 
C1001   C      C_R      0.62257    0.80667    0.20214    0.00000 
C1002   C      C_R      0.74841    0.69434    0.03621    0.00000 
H1003   H      H_       0.66132    0.82525    0.19755    0.00000 
H1004   H      H_       0.53748    0.67643    0.03168    0.00000 
C1005   C      C_R      0.62474    0.94460    0.20107    0.00000 
C1006   C      C_R      0.50053    0.55612    0.03475    0.00000 
H1007   H      H_       0.71116    0.57387    0.02996    0.00000 
C1008   C      C_R      0.70399    0.94469    0.24252    0.00000 
C1009   C      C_R      0.57997    0.55477    0.07594    0.00000 
H1010   H      H_       0.72669    0.92759    0.26959    0.00000 
C1011   C      C_R      0.54443    0.80449    0.24245    0.00000 
C1012   C      C_R      0.67044    0.69582    0.07646    0.00000 
H1013   H      H_       0.64819    0.67876    0.10302    0.00000 
C1014   C      C_R      0.52346    0.76254    0.21710    0.00000 
C1015   C      C_R      0.64883    0.73736    0.05092    0.00000 
H1016   H      H_       0.73434    0.74662    0.22450    0.00000 
H1017   H      H_       0.60948    0.75260    0.05842    0.00000 
C1018   C      C_R      0.55408    0.74213    0.18337    0.00000 
C1019   C      C_R      0.67892    0.75783    0.01688    0.00000 
C1020   C      C_R      0.71665    0.54966    0.15554    0.00000 
C1021   C      C_R      0.59076    0.94986    0.32189    0.00000 
C1022   C      C_R      0.53369    0.69724    0.15689    0.00000 
C1023   C      C_R      0.65802    0.80209    0.32304    0.00000 
Ni1024  Ni     Ni4+2    0.87350    0.87574    0.27878    0.00000 
Ni1025  Ni     Ni4+2    0.99999    0.62400    0.11306    0.00000 
O1026   O      O_R      0.81139    0.67384    0.12762    0.00000 
O1027   O      O_R      0.93560    0.82549    0.29376    0.00000 
O1028   O      O_R      0.93881    0.57375    0.12573    0.00000 
O1029   O      O_R      0.81255    0.92618    0.29209    0.00000 
O1030   O      O_R      0.98653    0.67808    0.16100    0.00000 
O1031   O      O_R      0.86057    0.82071    0.32663    0.00000 
O1032   O      O_R      0.76442    0.56758    0.16036    0.00000 
O1033   O      O_R      0.88834    0.93138    0.32647    0.00000 
N1034   N      N_R      0.90422    0.92563    0.23494    0.00000 
N1035   N      N_R      0.78036    0.57443    0.06868    0.00000 
N1036   N      N_R      0.84327    0.82516    0.23528    0.00000 
N1037   N      N_R      0.96940    0.67546    0.06935    0.00000 
C1038   C      C_R      0.89411    0.98503    0.17399    0.00000 
C1039   C      C_R      0.76919    0.51555    0.00744    0.00000 
H1040   H      H_       0.86856    0.99979    0.14770    0.00000 
H1041   H      H_       0.99327    0.50135    0.31450    0.00000 
C1042   C      C_R      0.94532    0.50589    0.18216    0.00000 
C1043   C      C_R      0.82012    0.99387    0.01538    0.00000 
C1044   C      C_R      0.97596    0.98510    0.21679    0.00000 
C1045   C      C_R      0.85126    0.51418    0.04996    0.00000 
H1046   H      H_       0.76603    0.99940    0.22451    0.00000 
H1047   H      H_       0.89117    0.99933    0.05753    0.00000 
C1048   C      C_R      0.85409    0.76485    0.17546    0.00000 
C1049   C      C_R      0.97927    0.73570    0.00930    0.00000 
H1050   H      H_       0.87935    0.75045    0.14976    0.00000 
H1051   H      H_       0.75432    0.75020    0.31685    0.00000 
C1052   C      C_R      0.87257    0.80667    0.20214    0.00000 
C1053   C      C_R      0.99841    0.69434    0.03621    0.00000 
H1054   H      H_       0.91132    0.82525    0.19755    0.00000 
C1055   C      C_R      0.87474    0.94460    0.20107    0.00000 
C1056   C      C_R      0.75053    0.55612    0.03475    0.00000 
H1057   H      H_       0.83508    0.92756    0.19619    0.00000 
H1058   H      H_       0.96116    0.57387    0.02996    0.00000 
C1059   C      C_R      0.95399    0.94469    0.24252    0.00000 
C1060   C      C_R      0.82997    0.55477    0.07594    0.00000 
C1061   C      C_R      0.79443    0.80449    0.24245    0.00000 
C1062   C      C_R      0.92044    0.69582    0.07646    0.00000 
C1063   C      C_R      0.77346    0.76254    0.21710    0.00000 
C1064   C      C_R      0.89883    0.73736    0.05092    0.00000 
H1065   H      H_       0.98434    0.74662    0.22450    0.00000 
H1066   H      H_       0.85948    0.75260    0.05842    0.00000 
C1067   C      C_R      0.80408    0.74213    0.18337    0.00000 
C1068   C      C_R      0.92892    0.75783    0.01688    0.00000 
C1069   C      C_R      0.96665    0.54966    0.15554    0.00000 
C1070   C      C_R      0.84076    0.94986    0.32189    0.00000 
C1071   C      C_R      0.78369    0.69724    0.15689    0.00000 
C1072   C      C_R      0.90802    0.80209    0.32304    0.00000 
F1073   F      F_       0.57448    0.92371    0.19298    0.00000 
F1074   F      F_       0.61067    0.57516    0.10987    0.00000 
F1075   F      F_       0.51445    0.82519    0.27553    0.00000 
F1076   F      F_       0.79792    0.67237    0.02874    0.00000 
F1077   F      F_       0.98416    0.92382    0.27657    0.00000 
F1078   F      F_       0.86067    0.57516    0.10987    0.00000 
F1079   F      F_       0.76446    0.82519    0.27553    0.00000 
F1080   F      F_       0.89077    0.67519    0.10982    0.00000 
Ni1081  Ni     Ni4+2    0.62350    0.87574    0.61211    0.00000 
Ni1082  Ni     Ni4+2    0.74999    0.62400    0.44639    0.00000 
O1083   O      O_R      0.56139    0.67384    0.46096    0.00000 
O1084   O      O_R      0.68560    0.82549    0.62710    0.00000 
O1085   O      O_R      0.68881    0.57375    0.45906    0.00000 
O1086   O      O_R      0.56255    0.92618    0.62542    0.00000 
O1087   O      O_R      0.73653    0.67808    0.49433    0.00000 
O1088   O      O_R      0.61057    0.82071    0.65996    0.00000 
O1089   O      O_R      0.51442    0.56758    0.49369    0.00000 
O1090   O      O_R      0.63834    0.93138    0.65980    0.00000 
N1091   N      N_R      0.65422    0.92563    0.56828    0.00000 
N1092   N      N_R      0.53036    0.57443    0.40202    0.00000 
N1093   N      N_R      0.59327    0.82516    0.56861    0.00000 
N1094   N      N_R      0.71940    0.67546    0.40268    0.00000 
C1095   C      C_R      0.64411    0.98503    0.50733    0.00000 
C1096   C      C_R      0.51919    0.51555    0.34077    0.00000 
H1097   H      H_       0.61856    0.99979    0.48104    0.00000 
H1098   H      H_       0.74327    0.50135    0.64783    0.00000 
C1099   C      C_R      0.69532    0.50589    0.51550    0.00000 
C1100   C      C_R      0.57012    0.99387    0.34872    0.00000 
C1101   C      C_R      0.72596    0.98510    0.55012    0.00000 
C1102   C      C_R      0.60126    0.51418    0.38330    0.00000 
H1103   H      H_       0.51603    0.99940    0.55784    0.00000 
H1104   H      H_       0.64117    0.99933    0.39087    0.00000 
C1105   C      C_R      0.60409    0.76485    0.50879    0.00000 
C1106   C      C_R      0.72927    0.73570    0.34263    0.00000 
H1107   H      H_       0.62935    0.75045    0.48309    0.00000 
H1108   H      H_       0.50432    0.75020    0.65018    0.00000 
C1109   C      C_R      0.62257    0.80667    0.53548    0.00000 
C1110   C      C_R      0.74841    0.69434    0.36954    0.00000 
H1111   H      H_       0.66132    0.82525    0.53088    0.00000 
H1112   H      H_       0.53748    0.67643    0.36501    0.00000 
C1113   C      C_R      0.62474    0.94460    0.53440    0.00000 
C1114   C      C_R      0.50053    0.55612    0.36808    0.00000 
H1115   H      H_       0.71116    0.57387    0.36330    0.00000 
C1116   C      C_R      0.70399    0.94469    0.57585    0.00000 
C1117   C      C_R      0.57997    0.55477    0.40927    0.00000 
H1118   H      H_       0.72669    0.92759    0.60292    0.00000 
C1119   C      C_R      0.54443    0.80449    0.57578    0.00000 
C1120   C      C_R      0.67044    0.69582    0.40980    0.00000 
H1121   H      H_       0.64819    0.67876    0.43635    0.00000 
C1122   C      C_R      0.52346    0.76254    0.55044    0.00000 
C1123   C      C_R      0.64883    0.73736    0.38425    0.00000 
H1124   H      H_       0.73434    0.74662    0.55783    0.00000 
H1125   H      H_       0.60948    0.75260    0.39175    0.00000 
C1126   C      C_R      0.55408    0.74213    0.51671    0.00000 
C1127   C      C_R      0.67892    0.75783    0.35021    0.00000 
C1128   C      C_R      0.71665    0.54966    0.48887    0.00000 
C1129   C      C_R      0.59076    0.94986    0.65522    0.00000 
C1130   C      C_R      0.53369    0.69724    0.49023    0.00000 
C1131   C      C_R      0.65802    0.80209    0.65637    0.00000 
Ni1132  Ni     Ni4+2    0.87350    0.87574    0.61211    0.00000 
Ni1133  Ni     Ni4+2    0.99999    0.62400    0.44639    0.00000 
O1134   O      O_R      0.81139    0.67384    0.46096    0.00000 
O1135   O      O_R      0.93560    0.82549    0.62710    0.00000 
O1136   O      O_R      0.93881    0.57375    0.45906    0.00000 
O1137   O      O_R      0.81255    0.92618    0.62542    0.00000 
O1138   O      O_R      0.98653    0.67808    0.49433    0.00000 
O1139   O      O_R      0.86057    0.82071    0.65996    0.00000 
O1140   O      O_R      0.76442    0.56758    0.49369    0.00000 
O1141   O      O_R      0.88834    0.93138    0.65980    0.00000 
N1142   N      N_R      0.90422    0.92563    0.56828    0.00000 
N1143   N      N_R      0.78036    0.57443    0.40202    0.00000 
N1144   N      N_R      0.84327    0.82516    0.56861    0.00000 
N1145   N      N_R      0.96940    0.67546    0.40268    0.00000 
C1146   C      C_R      0.89411    0.98503    0.50733    0.00000 
C1147   C      C_R      0.76919    0.51555    0.34077    0.00000 
H1148   H      H_       0.86856    0.99979    0.48104    0.00000 
H1149   H      H_       0.99327    0.50135    0.64783    0.00000 
C1150   C      C_R      0.94532    0.50589    0.51550    0.00000 
C1151   C      C_R      0.82012    0.99387    0.34872    0.00000 
C1152   C      C_R      0.97596    0.98510    0.55012    0.00000 
C1153   C      C_R      0.85126    0.51418    0.38330    0.00000 
H1154   H      H_       0.76603    0.99940    0.55784    0.00000 
H1155   H      H_       0.89117    0.99933    0.39087    0.00000 
C1156   C      C_R      0.85409    0.76485    0.50879    0.00000 
C1157   C      C_R      0.97927    0.73570    0.34263    0.00000 
H1158   H      H_       0.87935    0.75045    0.48309    0.00000 
H1159   H      H_       0.75432    0.75020    0.65018    0.00000 
C1160   C      C_R      0.87257    0.80667    0.53548    0.00000 
C1161   C      C_R      0.99841    0.69434    0.36954    0.00000 
H1162   H      H_       0.91132    0.82525    0.53088    0.00000 
C1163   C      C_R      0.87474    0.94460    0.53440    0.00000 
C1164   C      C_R      0.75053    0.55612    0.36808    0.00000 
H1165   H      H_       0.83508    0.92756    0.52952    0.00000 
H1166   H      H_       0.96116    0.57387    0.36330    0.00000 
C1167   C      C_R      0.95399    0.94469    0.57585    0.00000 
C1168   C      C_R      0.82997    0.55477    0.40927    0.00000 
C1169   C      C_R      0.79443    0.80449    0.57578    0.00000 
C1170   C      C_R      0.92044    0.69582    0.40980    0.00000 
C1171   C      C_R      0.77346    0.76254    0.55044    0.00000 
C1172   C      C_R      0.89883    0.73736    0.38425    0.00000 
H1173   H      H_       0.98434    0.74662    0.55783    0.00000 
H1174   H      H_       0.85948    0.75260    0.39175    0.00000 
C1175   C      C_R      0.80408    0.74213    0.51671    0.00000 
C1176   C      C_R      0.92892    0.75783    0.35021    0.00000 
C1177   C      C_R      0.96665    0.54966    0.48887    0.00000 
C1178   C      C_R      0.84076    0.94986    0.65522    0.00000 
C1179   C      C_R      0.78369    0.69724    0.49023    0.00000 
C1180   C      C_R      0.90802    0.80209    0.65637    0.00000 
F1181   F      F_       0.57448    0.92371    0.52631    0.00000 
F1182   F      F_       0.61067    0.57516    0.44320    0.00000 
F1183   F      F_       0.51445    0.82519    0.60886    0.00000 
F1184   F      F_       0.79792    0.67237    0.36207    0.00000 
F1185   F      F_       0.98416    0.92382    0.60990    0.00000 
F1186   F      F_       0.86067    0.57516    0.44320    0.00000 
F1187   F      F_       0.76446    0.82519    0.60886    0.00000 
F1188   F      F_       0.89077    0.67519    0.44316    0.00000 
Ni1189  Ni     Ni4+2    0.62350    0.87574    0.94544    0.00000 
Ni1190  Ni     Ni4+2    0.74999    0.62400    0.77973    0.00000 
O1191   O      O_R      0.56139    0.67384    0.79429    0.00000 
O1192   O      O_R      0.68560    0.82549    0.96043    0.00000 
O1193   O      O_R      0.68881    0.57375    0.79239    0.00000 
O1194   O      O_R      0.56255    0.92618    0.95875    0.00000 
O1195   O      O_R      0.73653    0.67808    0.82766    0.00000 
O1196   O      O_R      0.61057    0.82071    0.99329    0.00000 
O1197   O      O_R      0.51442    0.56758    0.82703    0.00000 
O1198   O      O_R      0.63834    0.93138    0.99313    0.00000 
N1199   N      N_R      0.65422    0.92563    0.90161    0.00000 
N1200   N      N_R      0.53036    0.57443    0.73535    0.00000 
N1201   N      N_R      0.59327    0.82515    0.90195    0.00000 
N1202   N      N_R      0.71940    0.67546    0.73601    0.00000 
C1203   C      C_R      0.64411    0.98503    0.84066    0.00000 
C1204   C      C_R      0.51919    0.51555    0.67410    0.00000 
H1205   H      H_       0.61856    0.99979    0.81437    0.00000 
H1206   H      H_       0.74327    0.50135    0.98117    0.00000 
C1207   C      C_R      0.69532    0.50588    0.84883    0.00000 
C1208   C      C_R      0.57012    0.99387    0.68205    0.00000 
C1209   C      C_R      0.72596    0.98510    0.88346    0.00000 
C1210   C      C_R      0.60126    0.51418    0.71663    0.00000 
H1211   H      H_       0.51603    0.99940    0.89117    0.00000 
H1212   H      H_       0.64117    0.99933    0.72420    0.00000 
C1213   C      C_R      0.60409    0.76485    0.84213    0.00000 
C1214   C      C_R      0.72927    0.73570    0.67597    0.00000 
H1215   H      H_       0.62935    0.75045    0.81643    0.00000 
H1216   H      H_       0.50432    0.75020    0.98352    0.00000 
C1217   C      C_R      0.62257    0.80667    0.86881    0.00000 
C1218   C      C_R      0.74841    0.69434    0.70287    0.00000 
H1219   H      H_       0.66132    0.82525    0.86421    0.00000 
H1220   H      H_       0.53748    0.67643    0.69834    0.00000 
C1221   C      C_R      0.62474    0.94460    0.86773    0.00000 
C1222   C      C_R      0.50053    0.55612    0.70142    0.00000 
H1223   H      H_       0.71116    0.57387    0.69663    0.00000 
C1224   C      C_R      0.70399    0.94469    0.90918    0.00000 
C1225   C      C_R      0.57997    0.55477    0.74260    0.00000 
H1226   H      H_       0.72668    0.92759    0.93625    0.00000 
C1227   C      C_R      0.54443    0.80449    0.90912    0.00000 
C1228   C      C_R      0.67044    0.69582    0.74313    0.00000 
H1229   H      H_       0.64819    0.67876    0.76968    0.00000 
C1230   C      C_R      0.52346    0.76254    0.88377    0.00000 
C1231   C      C_R      0.64883    0.73736    0.71758    0.00000 
H1232   H      H_       0.73434    0.74662    0.89117    0.00000 
H1233   H      H_       0.60948    0.75260    0.72509    0.00000 
C1234   C      C_R      0.55408    0.74213    0.85004    0.00000 
C1235   C      C_R      0.67892    0.75783    0.68355    0.00000 
C1236   C      C_R      0.71666    0.54966    0.82221    0.00000 
C1237   C      C_R      0.59076    0.94986    0.98856    0.00000 
C1238   C      C_R      0.53369    0.69724    0.82356    0.00000 
C1239   C      C_R      0.65802    0.80209    0.98970    0.00000 
Ni1240  Ni     Ni4+2    0.87350    0.87574    0.94544    0.00000 
Ni1241  Ni     Ni4+2    0.99999    0.62400    0.77973    0.00000 
O1242   O      O_R      0.81139    0.67384    0.79429    0.00000 
O1243   O      O_R      0.93560    0.82549    0.96043    0.00000 
O1244   O      O_R      0.93881    0.57375    0.79239    0.00000 
O1245   O      O_R      0.81255    0.92618    0.95875    0.00000 
O1246   O      O_R      0.98653    0.67808    0.82766    0.00000 
O1247   O      O_R      0.86057    0.82071    0.99329    0.00000 
O1248   O      O_R      0.76442    0.56758    0.82703    0.00000 
O1249   O      O_R      0.88834    0.93138    0.99313    0.00000 
N1250   N      N_R      0.90422    0.92563    0.90161    0.00000 
N1251   N      N_R      0.78036    0.57443    0.73535    0.00000 
N1252   N      N_R      0.84327    0.82515    0.90195    0.00000 
N1253   N      N_R      0.96941    0.67546    0.73601    0.00000 
C1254   C      C_R      0.89411    0.98503    0.84066    0.00000 
C1255   C      C_R      0.76919    0.51555    0.67410    0.00000 
H1256   H      H_       0.86856    0.99979    0.81437    0.00000 
H1257   H      H_       0.99327    0.50135    0.98117    0.00000 
C1258   C      C_R      0.94532    0.50588    0.84883    0.00000 
C1259   C      C_R      0.82012    0.99387    0.68205    0.00000 
C1260   C      C_R      0.97596    0.98510    0.88346    0.00000 
C1261   C      C_R      0.85126    0.51418    0.71663    0.00000 
H1262   H      H_       0.76603    0.99940    0.89117    0.00000 
H1263   H      H_       0.89117    0.99933    0.72420    0.00000 
C1264   C      C_R      0.85409    0.76485    0.84213    0.00000 
C1265   C      C_R      0.97927    0.73570    0.67597    0.00000 
H1266   H      H_       0.87935    0.75045    0.81643    0.00000 
H1267   H      H_       0.75432    0.75020    0.98352    0.00000 
C1268   C      C_R      0.87257    0.80667    0.86881    0.00000 
C1269   C      C_R      0.99841    0.69434    0.70287    0.00000 
H1270   H      H_       0.91132    0.82525    0.86421    0.00000 
C1271   C      C_R      0.87474    0.94460    0.86773    0.00000 
C1272   C      C_R      0.75053    0.55612    0.70142    0.00000 
H1273   H      H_       0.83508    0.92756    0.86285    0.00000 
H1274   H      H_       0.96116    0.57387    0.69663    0.00000 
C1275   C      C_R      0.95399    0.94469    0.90918    0.00000 
C1276   C      C_R      0.82997    0.55477    0.74260    0.00000 
C1277   C      C_R      0.79443    0.80449    0.90912    0.00000 
C1278   C      C_R      0.92044    0.69582    0.74313    0.00000 
C1279   C      C_R      0.77346    0.76254    0.88377    0.00000 
C1280   C      C_R      0.89883    0.73736    0.71758    0.00000 
H1281   H      H_       0.98434    0.74662    0.89117    0.00000 
H1282   H      H_       0.85948    0.75260    0.72509    0.00000 
C1283   C      C_R      0.80408    0.74213    0.85004    0.00000 
C1284   C      C_R      0.92892    0.75783    0.68355    0.00000 
C1285   C      C_R      0.96665    0.54966    0.82221    0.00000 
C1286   C      C_R      0.84076    0.94986    0.98856    0.00000 
C1287   C      C_R      0.78369    0.69724    0.82356    0.00000 
C1288   C      C_R      0.90802    0.80209    0.98970    0.00000 
F1289   F      F_       0.57448    0.92371    0.85965    0.00000 
F1290   F      F_       0.61067    0.57516    0.77653    0.00000 
F1291   F      F_       0.51445    0.82519    0.94220    0.00000 
F1292   F      F_       0.79792    0.67237    0.69540    0.00000 
F1293   F      F_       0.98416    0.92382    0.94324    0.00000 
F1294   F      F_       0.86067    0.57516    0.77654    0.00000 
F1295   F      F_       0.76446    0.82519    0.94220    0.00000 
F1296   F      F_       0.89077    0.67519    0.77649    0.00000 
loop_
_geom_bond_atom_site_label_1      
_geom_bond_atom_site_label_2      
_geom_bond_distance               
_geom_bond_site_symmetry_2        
_ccdc_geom_bond_type              
Ni1     O4        0.166 .         S 
Ni1     O6        0.163 .         S 
Ni1     O8        0.183 .         S 
Ni1     O10       0.184 .         S 
Ni1     N11       0.176 .         S 
Ni1     N13       0.176 .         S 
Ni2     N14       0.178 .         S 
Ni2     O5        0.163 .         S 
Ni2     O7        0.182 .         S 
Ni2     O54       0.164 .         S 
Ni2     O60       0.184 .         S 
Ni2     N63       0.177 .         S 
O3      Ni701     0.164 1_455     S 
O9      Ni701     0.184 1_455     S 
N12     Ni701     0.177 1_455     S 
C15     H17       0.099 .         S 
C16     H933      0.099 1_454     S 
H18     C175      0.099 .         S 
C19     C48       0.126 .         S 
C20     C265      0.126 1_554     S 
C21     H74       0.088 .         S 
C22     H348      0.088 1_545     S 
H23     C720      0.088 1_455     S 
C346    H24       0.088 .         S 
C25     H27       0.097 .         S 
C26     H295      0.097 1_554     S 
H28     C833      0.097 1_455     S 
C29     H31       0.087 .         S 
C30     F104      0.111 .         S 
H32     C729      0.087 1_455     S 
C33     F101      0.112 .         S 
C34     H734      0.088 1_455     S 
H35     C84       0.088 .         S 
C36     H38       0.099 .         S 
C37     F102      0.126 .         S 
C39     F103      0.123 .         S 
C40     H41       0.097 .         S 
C42     H741      0.087 1_455     S 
C43     H45       0.087 .         S 
H44     C91       0.087 .         S 
C46     C50       0.127 .         S 
C47     C267      0.127 1_554     S 
C128    C49       0.126 .         S 
C155    C51       0.127 .         S 
Ni52    O55       0.166 .         S 
Ni52    O57       0.163 .         S 
Ni52    O59       0.183 .         S 
Ni52    O61       0.184 .         S 
Ni52    N62       0.176 .         S 
Ni52    N64       0.176 .         S 
Ni53    O56       0.163 .         S 
Ni53    O58       0.182 .         S 
Ni53    N65       0.178 .         S 
O651    Ni53      0.164 .         S 
O657    Ni53      0.184 .         S 
N660    Ni53      0.177 .         S 
C66     H68       0.099 .         S 
H234    C67       0.099 1_556     S 
C772    H69       0.099 .         S 
C70     C97       0.126 .         S 
C71     C314      0.126 1_554     S 
H671    C72       0.088 .         S 
C73     H399      0.088 1_545     S 
C397    H75       0.088 .         S 
C76     H78       0.097 .         S 
H892    C77       0.097 1_556     S 
C134    H79       0.097 .         S 
C80     H82       0.087 .         S 
H680    C81       0.087 .         S 
C83     H85       0.088 .         S 
C682    H86       0.088 .         S 
C87     F105      0.126 .         S 
C88     F106      0.126 .         S 
C89     F107      0.123 .         S 
C90     F108      0.123 .         S 
C92     H94       0.087 .         S 
C690    H93       0.087 .         S 
C95     C99       0.127 .         S 
C96     C316      0.127 1_554     S 
C179    C98       0.126 .         S 
C204    C100      0.127 .         S 
Ni109   O112      0.166 .         S 
Ni109   O114      0.163 .         S 
Ni109   O116      0.183 .         S 
Ni109   O118      0.184 .         S 
Ni109   N119      0.176 .         S 
Ni109   N121      0.176 .         S 
Ni110   N122      0.178 .         S 
Ni110   O113      0.163 .         S 
Ni110   O115      0.182 .         S 
Ni110   O162      0.164 .         S 
Ni110   O168      0.184 .         S 
Ni110   N171      0.177 .         S 
O111    Ni809     0.164 1_455     S 
O117    Ni809     0.184 1_455     S 
N120    Ni809     0.177 1_455     S 
C123    H125      0.099 .         S 
C124    H717      0.099 1_455     S 
H126    C283      0.099 .         S 
C127    C156      0.126 .         S 
C129    H182      0.088 .         S 
C130    H456      0.088 1_545     S 
H131    C828      0.088 1_455     S 
C454    H132      0.088 .         S 
C133    H135      0.097 .         S 
H136    C941      0.097 1_455     S 
C137    H139      0.087 .         S 
C138    F212      0.111 .         S 
H140    C837      0.087 1_455     S 
C141    F209      0.112 .         S 
C142    H842      0.088 1_455     S 
H143    C192      0.088 .         S 
C144    H146      0.099 .         S 
C145    F210      0.126 .         S 
C147    F211      0.123 .         S 
C148    H149      0.097 .         S 
C150    H849      0.087 1_455     S 
C151    H153      0.087 .         S 
H152    C199      0.087 .         S 
C154    C158      0.127 .         S 
C236    C157      0.126 .         S 
C263    C159      0.127 .         S 
Ni160   O163      0.166 .         S 
Ni160   O165      0.163 .         S 
Ni160   O167      0.183 .         S 
Ni160   O169      0.184 .         S 
Ni160   N170      0.176 .         S 
Ni160   N172      0.176 .         S 
Ni161   O164      0.163 .         S 
Ni161   O166      0.182 .         S 
Ni161   N173      0.178 .         S 
O759    Ni161     0.164 .         S 
O765    Ni161     0.184 .         S 
N768    Ni161     0.177 .         S 
C174    H176      0.099 .         S 
C880    H177      0.099 .         S 
C178    C205      0.126 .         S 
H779    C180      0.088 .         S 
C181    H507      0.088 1_545     S 
C505    H183      0.088 .         S 
C184    H186      0.097 .         S 
H676    C185      0.097 .         S 
C242    H187      0.097 .         S 
C188    H190      0.087 .         S 
H788    C189      0.087 .         S 
C191    H193      0.088 .         S 
C790    H194      0.088 .         S 
C195    F213      0.126 .         S 
C196    F214      0.126 .         S 
C197    F215      0.123 .         S 
C198    F216      0.123 .         S 
C200    H202      0.087 .         S 
C798    H201      0.087 .         S 
C203    C207      0.127 .         S 
C287    C206      0.126 .         S 
C312    C208      0.127 .         S 
Ni217   O220      0.166 .         S 
Ni217   O222      0.163 .         S 
Ni217   O224      0.183 .         S 
Ni217   O226      0.184 .         S 
Ni217   N227      0.176 .         S 
Ni217   N229      0.176 .         S 
Ni218   N230      0.178 .         S 
Ni218   O221      0.163 .         S 
Ni218   O223      0.182 .         S 
Ni218   O270      0.164 .         S 
Ni218   O276      0.184 .         S 
Ni218   N279      0.177 .         S 
O219    Ni917     0.164 1_455     S 
O225    Ni917     0.184 1_455     S 
N228    Ni917     0.177 1_455     S 
C231    H233      0.099 .         S 
C232    H825      0.099 1_455     S 
C235    C264      0.126 .         S 
C237    H290      0.088 .         S 
C238    H564      0.088 1_545     S 
H239    C936      0.088 1_455     S 
C562    H240      0.088 .         S 
C241    H243      0.097 .         S 
H244    C725      0.097 1_456     S 
C245    H247      0.087 .         S 
C246    F320      0.111 .         S 
H248    C945      0.087 1_455     S 
C249    F317      0.112 .         S 
C250    H950      0.088 1_455     S 
H251    C300      0.088 .         S 
C252    H254      0.099 .         S 
C253    F318      0.126 .         S 
C255    F319      0.123 .         S 
C256    H257      0.097 .         S 
C258    H957      0.087 1_455     S 
C259    H261      0.087 .         S 
H260    C307      0.087 .         S 
C262    C266      0.127 .         S 
Ni268   O271      0.166 .         S 
Ni268   O273      0.163 .         S 
Ni268   O275      0.183 .         S 
Ni268   O277      0.184 .         S 
Ni268   N278      0.176 .         S 
Ni268   N280      0.176 .         S 
Ni269   O272      0.163 .         S 
Ni269   O274      0.182 .         S 
Ni269   N281      0.178 .         S 
O867    Ni269     0.164 .         S 
O873    Ni269     0.184 .         S 
N876    Ni269     0.177 .         S 
C282    H284      0.099 .         S 
C664    H285      0.099 1_554     S 
C286    C313      0.126 .         S 
H887    C288      0.088 .         S 
C289    H615      0.088 1_545     S 
C613    H291      0.088 .         S 
C292    H294      0.097 .         S 
H784    C293      0.097 .         S 
C296    H298      0.087 .         S 
H896    C297      0.087 .         S 
C299    H301      0.088 .         S 
C898    H302      0.088 .         S 
C303    F321      0.126 .         S 
C304    F322      0.126 .         S 
C305    F323      0.123 .         S 
C306    F324      0.123 .         S 
C308    H310      0.087 .         S 
C906    H309      0.087 .         S 
C311    C315      0.127 .         S 
Ni325   O328      0.166 .         S 
Ni325   O330      0.163 .         S 
Ni325   O332      0.183 .         S 
Ni325   O334      0.184 .         S 
Ni325   N335      0.176 .         S 
Ni325   N337      0.176 .         S 
Ni326   N338      0.178 .         S 
Ni326   O329      0.163 .         S 
Ni326   O331      0.182 .         S 
Ni326   O378      0.164 .         S 
Ni326   O384      0.184 .         S 
Ni326   N387      0.177 .         S 
O327    Ni1025    0.164 1_455     S 
O333    Ni1025    0.184 1_455     S 
N336    Ni1025    0.177 1_455     S 
C339    H341      0.099 .         S 
C340    H1257     0.099 1_454     S 
H342    C499      0.099 .         S 
C343    C372      0.126 .         S 
C344    C589      0.126 1_554     S 
C345    H398      0.088 .         S 
H347    C1044     0.088 1_455     S 
C349    H351      0.097 .         S 
C350    H619      0.097 1_554     S 
H352    C1157     0.097 1_455     S 
C353    H355      0.087 .         S 
C354    F428      0.111 .         S 
H356    C1053     0.087 1_455     S 
C357    F425      0.112 .         S 
C358    H1058     0.088 1_455     S 
H359    C408      0.088 .         S 
C360    H362      0.099 .         S 
C361    F426      0.126 .         S 
C363    F427      0.123 .         S 
C364    H365      0.097 .         S 
C366    H1065     0.087 1_455     S 
C367    H369      0.087 .         S 
H368    C415      0.087 .         S 
C370    C374      0.127 .         S 
C371    C591      0.127 1_554     S 
C452    C373      0.126 .         S 
C479    C375      0.127 .         S 
Ni376   O379      0.166 .         S 
Ni376   O381      0.163 .         S 
Ni376   O383      0.183 .         S 
Ni376   O385      0.184 .         S 
Ni376   N386      0.176 .         S 
Ni376   N388      0.176 .         S 
Ni377   O380      0.163 .         S 
Ni377   O382      0.182 .         S 
Ni377   N389      0.178 .         S 
O975    Ni377     0.164 .         S 
O981    Ni377     0.184 .         S 
N984    Ni377     0.177 .         S 
C390    H392      0.099 .         S 
H558    C391      0.099 1_556     S 
C1096   H393      0.099 .         S 
C394    C421      0.126 .         S 
C395    C638      0.126 1_554     S 
H995    C396      0.088 .         S 
C400    H402      0.097 .         S 
H1216   C401      0.097 1_556     S 
C458    H403      0.097 .         S 
C404    H406      0.087 .         S 
H1004   C405      0.087 .         S 
C407    H409      0.088 .         S 
C1006   H410      0.088 .         S 
C411    F429      0.126 .         S 
C412    F430      0.126 .         S 
C413    F431      0.123 .         S 
C414    F432      0.123 .         S 
C416    H418      0.087 .         S 
C1014   H417      0.087 .         S 
C419    C423      0.127 .         S 
C420    C640      0.127 1_554     S 
C503    C422      0.126 .         S 
C528    C424      0.127 .         S 
Ni433   O436      0.166 .         S 
Ni433   O438      0.163 .         S 
Ni433   O440      0.183 .         S 
Ni433   O442      0.184 .         S 
Ni433   N443      0.176 .         S 
Ni433   N445      0.176 .         S 
Ni434   N446      0.178 .         S 
Ni434   O437      0.163 .         S 
Ni434   O439      0.182 .         S 
Ni434   O486      0.164 .         S 
Ni434   O492      0.184 .         S 
Ni434   N495      0.177 .         S 
O435    Ni1133    0.164 1_455     S 
O441    Ni1133    0.184 1_455     S 
N444    Ni1133    0.177 1_455     S 
C447    H449      0.099 .         S 
C448    H1041     0.099 1_455     S 
H450    C607      0.099 .         S 
C451    C480      0.126 .         S 
C453    H506      0.088 .         S 
H455    C1152     0.088 1_455     S 
C457    H459      0.097 .         S 
H460    C1265     0.097 1_455     S 
C461    H463      0.087 .         S 
C462    F536      0.111 .         S 
H464    C1161     0.087 1_455     S 
C465    F533      0.112 .         S 
C466    H1166     0.088 1_455     S 
H467    C516      0.088 .         S 
C468    H470      0.099 .         S 
C469    F534      0.126 .         S 
C471    F535      0.123 .         S 
C472    H473      0.097 .         S 
C474    H1173     0.087 1_455     S 
C475    H477      0.087 .         S 
H476    C523      0.087 .         S 
C478    C482      0.127 .         S 
C560    C481      0.126 .         S 
C587    C483      0.127 .         S 
Ni484   O487      0.166 .         S 
Ni484   O489      0.163 .         S 
Ni484   O491      0.183 .         S 
Ni484   O493      0.184 .         S 
Ni484   N494      0.176 .         S 
Ni484   N496      0.176 .         S 
Ni485   O488      0.163 .         S 
Ni485   O490      0.182 .         S 
Ni485   N497      0.178 .         S 
O1083   Ni485     0.164 .         S 
O1089   Ni485     0.184 .         S 
N1092   Ni485     0.177 .         S 
C498    H500      0.099 .         S 
C1204   H501      0.099 .         S 
C502    C529      0.126 .         S 
H1103   C504      0.088 .         S 
C508    H510      0.097 .         S 
H1000   C509      0.097 .         S 
C566    H511      0.097 .         S 
C512    H514      0.087 .         S 
H1112   C513      0.087 .         S 
C515    H517      0.088 .         S 
C1114   H518      0.088 .         S 
C519    F537      0.126 .         S 
C520    F538      0.126 .         S 
C521    F539      0.123 .         S 
C522    F540      0.123 .         S 
C524    H526      0.087 .         S 
C1122   H525      0.087 .         S 
C527    C531      0.127 .         S 
C611    C530      0.126 .         S 
C636    C532      0.127 .         S 
Ni541   O544      0.166 .         S 
Ni541   O546      0.163 .         S 
Ni541   O548      0.183 .         S 
Ni541   O550      0.184 .         S 
Ni541   N551      0.176 .         S 
Ni541   N553      0.176 .         S 
Ni542   N554      0.178 .         S 
Ni542   O545      0.163 .         S 
Ni542   O547      0.182 .         S 
Ni542   O594      0.164 .         S 
Ni542   O600      0.184 .         S 
Ni542   N603      0.177 .         S 
O543    Ni1241    0.164 1_455     S 
O549    Ni1241    0.184 1_455     S 
N552    Ni1241    0.177 1_455     S 
C555    H557      0.099 .         S 
C556    H1149     0.099 1_455     S 
C559    C588      0.126 .         S 
C561    H614      0.088 .         S 
H563    C1260     0.088 1_455     S 
C565    H567      0.097 .         S 
H568    C1049     0.097 1_456     S 
C569    H571      0.087 .         S 
C570    F644      0.111 .         S 
H572    C1269     0.087 1_455     S 
C573    F641      0.112 .         S 
C574    H1274     0.088 1_455     S 
H575    C624      0.088 .         S 
C576    H578      0.099 .         S 
C577    F642      0.126 .         S 
C579    F643      0.123 .         S 
C580    H581      0.097 .         S 
C582    H1281     0.087 1_455     S 
C583    H585      0.087 .         S 
H584    C631      0.087 .         S 
C586    C590      0.127 .         S 
Ni592   O595      0.166 .         S 
Ni592   O597      0.163 .         S 
Ni592   O599      0.183 .         S 
Ni592   O601      0.184 .         S 
Ni592   N602      0.176 .         S 
Ni592   N604      0.176 .         S 
Ni593   O596      0.163 .         S 
Ni593   O598      0.182 .         S 
Ni593   N605      0.178 .         S 
O1191   Ni593     0.164 .         S 
O1197   Ni593     0.184 .         S 
N1200   Ni593     0.177 .         S 
C606    H608      0.099 .         S 
C988    H609      0.099 1_554     S 
C610    C637      0.126 .         S 
H1211   C612      0.088 .         S 
C616    H618      0.097 .         S 
H1108   C617      0.097 .         S 
C620    H622      0.087 .         S 
H1220   C621      0.087 .         S 
C623    H625      0.088 .         S 
C1222   H626      0.088 .         S 
C627    F645      0.126 .         S 
C628    F646      0.126 .         S 
C629    F647      0.123 .         S 
C630    F648      0.123 .         S 
C632    H634      0.087 .         S 
C1230   H633      0.087 .         S 
C635    C639      0.127 .         S 
Ni649   O652      0.166 .         S 
Ni649   O654      0.163 .         S 
Ni649   O656      0.183 .         S 
Ni649   O658      0.184 .         S 
Ni649   N659      0.176 .         S 
Ni649   N661      0.176 .         S 
Ni650   N662      0.178 .         S 
Ni650   O653      0.163 .         S 
Ni650   O655      0.182 .         S 
Ni650   O702      0.164 .         S 
Ni650   O708      0.184 .         S 
Ni650   N711      0.177 .         S 
C663    H665      0.099 .         S 
H666    C823      0.099 .         S 
C667    C696      0.126 .         S 
C668    C913      0.126 1_554     S 
C669    H722      0.088 .         S 
C670    H996      0.088 1_545     S 
C994    H672      0.088 .         S 
C673    H675      0.097 .         S 
C674    H943      0.097 1_554     S 
C677    H679      0.087 .         S 
C678    F752      0.111 .         S 
C681    F749      0.112 .         S 
H683    C732      0.088 .         S 
C684    H686      0.099 .         S 
C685    F750      0.126 .         S 
C687    F751      0.123 .         S 
C688    H689      0.097 .         S 
C691    H693      0.087 .         S 
H692    C739      0.087 .         S 
C694    C698      0.127 .         S 
C695    C915      0.127 1_554     S 
C776    C697      0.126 .         S 
C803    C699      0.127 .         S 
Ni700   O703      0.166 .         S 
Ni700   O705      0.163 .         S 
Ni700   O707      0.183 .         S 
Ni700   O709      0.184 .         S 
Ni700   N710      0.176 .         S 
Ni700   N712      0.176 .         S 
Ni701   O704      0.163 .         S 
Ni701   O706      0.182 .         S 
Ni701   N713      0.178 .         S 
C714    H716      0.099 .         S 
H882    C715      0.099 1_556     S 
C718    C745      0.126 .         S 
C719    C962      0.126 1_554     S 
C721    H1047     0.088 1_545     S 
C1045   H723      0.088 .         S 
C724    H726      0.097 .         S 
C782    H727      0.097 .         S 
C728    H730      0.087 .         S 
C731    H733      0.088 .         S 
C735    F753      0.126 .         S 
C736    F754      0.126 .         S 
C737    F755      0.123 .         S 
C738    F756      0.123 .         S 
C740    H742      0.087 .         S 
C743    C747      0.127 .         S 
C744    C964      0.127 1_554     S 
C827    C746      0.126 .         S 
C852    C748      0.127 .         S 
Ni757   O760      0.166 .         S 
Ni757   O762      0.163 .         S 
Ni757   O764      0.183 .         S 
Ni757   O766      0.184 .         S 
Ni757   N767      0.176 .         S 
Ni757   N769      0.176 .         S 
Ni758   N770      0.178 .         S 
Ni758   O761      0.163 .         S 
Ni758   O763      0.182 .         S 
Ni758   O810      0.164 .         S 
Ni758   O816      0.184 .         S 
Ni758   N819      0.177 .         S 
C771    H773      0.099 .         S 
H774    C931      0.099 .         S 
C775    C804      0.126 .         S 
C777    H830      0.088 .         S 
C778    H1104     0.088 1_545     S 
C1102   H780      0.088 .         S 
C781    H783      0.097 .         S 
C785    H787      0.087 .         S 
C786    F860      0.111 .         S 
C789    F857      0.112 .         S 
H791    C840      0.088 .         S 
C792    H794      0.099 .         S 
C793    F858      0.126 .         S 
C795    F859      0.123 .         S 
C796    H797      0.097 .         S 
C799    H801      0.087 .         S 
H800    C847      0.087 .         S 
C802    C806      0.127 .         S 
C884    C805      0.126 .         S 
C911    C807      0.127 .         S 
Ni808   O811      0.166 .         S 
Ni808   O813      0.163 .         S 
Ni808   O815      0.183 .         S 
Ni808   O817      0.184 .         S 
Ni808   N818      0.176 .         S 
Ni808   N820      0.176 .         S 
Ni809   O812      0.163 .         S 
Ni809   O814      0.182 .         S 
Ni809   N821      0.178 .         S 
C822    H824      0.099 .         S 
C826    C853      0.126 .         S 
C829    H1155     0.088 1_545     S 
C1153   H831      0.088 .         S 
C832    H834      0.097 .         S 
C890    H835      0.097 .         S 
C836    H838      0.087 .         S 
C839    H841      0.088 .         S 
C843    F861      0.126 .         S 
C844    F862      0.126 .         S 
C845    F863      0.123 .         S 
C846    F864      0.123 .         S 
C848    H850      0.087 .         S 
C851    C855      0.127 .         S 
C935    C854      0.126 .         S 
C960    C856      0.127 .         S 
Ni865   O868      0.166 .         S 
Ni865   O870      0.163 .         S 
Ni865   O872      0.183 .         S 
Ni865   O874      0.184 .         S 
Ni865   N875      0.176 .         S 
Ni865   N877      0.176 .         S 
Ni866   N878      0.178 .         S 
Ni866   O869      0.163 .         S 
Ni866   O871      0.182 .         S 
Ni866   O918      0.164 .         S 
Ni866   O924      0.184 .         S 
Ni866   N927      0.177 .         S 
C879    H881      0.099 .         S 
C883    C912      0.126 .         S 
C885    H938      0.088 .         S 
C886    H1212     0.088 1_545     S 
C1210   H888      0.088 .         S 
C889    H891      0.097 .         S 
C893    H895      0.087 .         S 
C894    F968      0.111 .         S 
C897    F965      0.112 .         S 
H899    C948      0.088 .         S 
C900    H902      0.099 .         S 
C901    F966      0.126 .         S 
C903    F967      0.123 .         S 
C904    H905      0.097 .         S 
C907    H909      0.087 .         S 
H908    C955      0.087 .         S 
C910    C914      0.127 .         S 
Ni916   O919      0.166 .         S 
Ni916   O921      0.163 .         S 
Ni916   O923      0.183 .         S 
Ni916   O925      0.184 .         S 
Ni916   N926      0.176 .         S 
Ni916   N928      0.176 .         S 
Ni917   O920      0.163 .         S 
Ni917   O922      0.182 .         S 
Ni917   N929      0.178 .         S 
C930    H932      0.099 .         S 
C934    C961      0.126 .         S 
C937    H1263     0.088 1_545     S 
C1261   H939      0.088 .         S 
C940    H942      0.097 .         S 
C944    H946      0.087 .         S 
C947    H949      0.088 .         S 
C951    F969      0.126 .         S 
C952    F970      0.126 .         S 
C953    F971      0.123 .         S 
C954    F972      0.123 .         S 
C956    H958      0.087 .         S 
C959    C963      0.127 .         S 
Ni973   O976      0.166 .         S 
Ni973   O978      0.163 .         S 
Ni973   O980      0.183 .         S 
Ni973   O982      0.184 .         S 
Ni973   N983      0.176 .         S 
Ni973   N985      0.176 .         S 
Ni974   N986      0.178 .         S 
Ni974   O977      0.163 .         S 
Ni974   O979      0.182 .         S 
Ni974   O1026     0.164 .         S 
Ni974   O1032     0.184 .         S 
Ni974   N1035     0.177 .         S 
C987    H989      0.099 .         S 
H990    C1147     0.099 .         S 
C991    C1020     0.126 .         S 
C992    C1237     0.126 1_554     S 
C993    H1046     0.088 .         S 
C997    H999      0.097 .         S 
C998    H1267     0.097 1_554     S 
C1001   H1003     0.087 .         S 
C1002   F1076     0.111 .         S 
C1005   F1073     0.112 .         S 
H1007   C1056     0.088 .         S 
C1008   H1010     0.099 .         S 
C1009   F1074     0.126 .         S 
C1011   F1075     0.123 .         S 
C1012   H1013     0.097 .         S 
C1015   H1017     0.087 .         S 
H1016   C1063     0.087 .         S 
C1018   C1022     0.127 .         S 
C1019   C1239     0.127 1_554     S 
C1100   C1021     0.126 .         S 
C1127   C1023     0.127 .         S 
Ni1024  O1027     0.166 .         S 
Ni1024  O1029     0.163 .         S 
Ni1024  O1031     0.183 .         S 
Ni1024  O1033     0.184 .         S 
Ni1024  N1034     0.176 .         S 
Ni1024  N1036     0.176 .         S 
Ni1025  O1028     0.163 .         S 
Ni1025  O1030     0.182 .         S 
Ni1025  N1037     0.178 .         S 
C1038   H1040     0.099 .         S 
H1206   C1039     0.099 1_556     S 
C1042   C1069     0.126 .         S 
C1043   C1286     0.126 1_554     S 
C1048   H1050     0.097 .         S 
C1106   H1051     0.097 .         S 
C1052   H1054     0.087 .         S 
C1055   H1057     0.088 .         S 
C1059   F1077     0.126 .         S 
C1060   F1078     0.126 .         S 
C1061   F1079     0.123 .         S 
C1062   F1080     0.123 .         S 
C1064   H1066     0.087 .         S 
C1067   C1071     0.127 .         S 
C1068   C1288     0.127 1_554     S 
C1151   C1070     0.126 .         S 
C1176   C1072     0.127 .         S 
Ni1081  O1084     0.166 .         S 
Ni1081  O1086     0.163 .         S 
Ni1081  O1088     0.183 .         S 
Ni1081  O1090     0.184 .         S 
Ni1081  N1091     0.176 .         S 
Ni1081  N1093     0.176 .         S 
Ni1082  N1094     0.178 .         S 
Ni1082  O1085     0.163 .         S 
Ni1082  O1087     0.182 .         S 
Ni1082  O1134     0.164 .         S 
Ni1082  O1140     0.184 .         S 
Ni1082  N1143     0.177 .         S 
C1095   H1097     0.099 .         S 
H1098   C1255     0.099 .         S 
C1099   C1128     0.126 .         S 
C1101   H1154     0.088 .         S 
C1105   H1107     0.097 .         S 
C1109   H1111     0.087 .         S 
C1110   F1184     0.111 .         S 
C1113   F1181     0.112 .         S 
H1115   C1164     0.088 .         S 
C1116   H1118     0.099 .         S 
C1117   F1182     0.126 .         S 
C1119   F1183     0.123 .         S 
C1120   H1121     0.097 .         S 
C1123   H1125     0.087 .         S 
H1124   C1171     0.087 .         S 
C1126   C1130     0.127 .         S 
C1208   C1129     0.126 .         S 
C1235   C1131     0.127 .         S 
Ni1132  O1135     0.166 .         S 
Ni1132  O1137     0.163 .         S 
Ni1132  O1139     0.183 .         S 
Ni1132  O1141     0.184 .         S 
Ni1132  N1142     0.176 .         S 
Ni1132  N1144     0.176 .         S 
Ni1133  O1136     0.163 .         S 
Ni1133  O1138     0.182 .         S 
Ni1133  N1145     0.178 .         S 
C1146   H1148     0.099 .         S 
C1150   C1177     0.126 .         S 
C1156   H1158     0.097 .         S 
C1214   H1159     0.097 .         S 
C1160   H1162     0.087 .         S 
C1163   H1165     0.088 .         S 
C1167   F1185     0.126 .         S 
C1168   F1186     0.126 .         S 
C1169   F1187     0.123 .         S 
C1170   F1188     0.123 .         S 
C1172   H1174     0.087 .         S 
C1175   C1179     0.127 .         S 
C1259   C1178     0.126 .         S 
C1284   C1180     0.127 .         S 
Ni1189  O1192     0.166 .         S 
Ni1189  O1194     0.163 .         S 
Ni1189  O1196     0.183 .         S 
Ni1189  O1198     0.184 .         S 
Ni1189  N1199     0.176 .         S 
Ni1189  N1201     0.176 .         S 
Ni1190  N1202     0.178 .         S 
Ni1190  O1193     0.163 .         S 
Ni1190  O1195     0.182 .         S 
Ni1190  O1242     0.164 .         S 
Ni1190  O1248     0.184 .         S 
Ni1190  N1251     0.177 .         S 
C1203   H1205     0.099 .         S 
C1207   C1236     0.126 .         S 
C1209   H1262     0.088 .         S 
C1213   H1215     0.097 .         S 
C1217   H1219     0.087 .         S 
C1218   F1292     0.111 .         S 
C1221   F1289     0.112 .         S 
H1223   C1272     0.088 .         S 
C1224   H1226     0.099 .         S 
C1225   F1290     0.126 .         S 
C1227   F1291     0.123 .         S 
C1228   H1229     0.097 .         S 
C1231   H1233     0.087 .         S 
H1232   C1279     0.087 .         S 
C1234   C1238     0.127 .         S 
Ni1240  O1243     0.166 .         S 
Ni1240  O1245     0.163 .         S 
Ni1240  O1247     0.183 .         S 
Ni1240  O1249     0.184 .         S 
Ni1240  N1250     0.176 .         S 
Ni1240  N1252     0.176 .         S 
Ni1241  O1244     0.163 .         S 
Ni1241  O1246     0.182 .         S 
Ni1241  N1253     0.178 .         S 
C1254   H1256     0.099 .         S 
C1258   C1285     0.126 .         S 
C1264   H1266     0.097 .         S 
C1268   H1270     0.087 .         S 
C1271   H1273     0.088 .         S 
C1275   F1293     0.126 .         S 
C1276   F1294     0.126 .         S 
C1277   F1295     0.123 .         S 
C1278   F1296     0.123 .         S 
C1280   H1282     0.087 .         S 
C1283   C1287     0.127 .         S 
O3      C50       0.114 .         A 
O4      C51       0.114 .         A 
O5      C48       0.116 .         A 
O6      C49       0.116 .         A 
O7      C99       0.103 .         A 
O8      C51       0.103 .         A 
O9      C745      0.103 1_455     A 
O10     C49       0.103 .         A 
N11     C33       0.123 .         A 
N11     C36       0.109 .         A 
N12     C34       0.124 .         A 
N12     C37       0.109 .         A 
N13     C29       0.121 .         A 
N13     C39       0.108 .         A 
N14     C30       0.121 .         A 
N14     C40       0.108 .         A 
C15     C33       0.121 .         A 
C15     C343      0.113 .         A 
C16     C34       0.121 .         A 
C16     C344      0.113 1_545     A 
C19     C345      0.128 1_545     A 
C339    C19       0.113 1_565     A 
C20     C346      0.128 .         A 
C340    C20       0.113 .         A 
C21     C36       0.120 .         A 
C343    C21       0.128 .         A 
C22     C37       0.120 .         A 
C344    C22       0.128 1_565     A 
C25     C29       0.122 .         A 
C25     C46       0.112 .         A 
C26     C30       0.122 .         A 
C26     C47       0.112 .         A 
C39     C42       0.121 .         A 
C40     C43       0.121 .         A 
C42     C46       0.125 .         A 
C43     C47       0.125 .         A 
C48     O60       0.103 .         A 
C50     O706      0.103 1_455     A 
O54     C99       0.114 .         A 
O55     C100      0.114 .         A 
O56     C97       0.116 .         A 
O57     C98       0.116 .         A 
C698    O58       0.103 .         A 
O59     C100      0.103 .         A 
O61     C98       0.103 .         A 
N62     C83       0.123 .         A 
N62     C87       0.109 .         A 
N63     C88       0.109 .         A 
N63     C84       0.124 .         A 
N64     C80       0.121 .         A 
N64     C89       0.108 .         A 
N65     C81       0.121 .         A 
N65     C90       0.108 .         A 
C66     C83       0.121 .         A 
C66     C394      0.113 .         A 
C67     C84       0.121 .         A 
C67     C395      0.113 1_545     A 
C70     C396      0.128 1_545     A 
C390    C70       0.113 1_565     A 
C71     C397      0.128 .         A 
C391    C71       0.113 .         A 
C72     C87       0.120 .         A 
C394    C72       0.128 .         A 
C73     C88       0.120 .         A 
C395    C73       0.128 1_565     A 
C76     C80       0.122 .         A 
C76     C95       0.112 .         A 
C77     C81       0.122 .         A 
C77     C96       0.112 .         A 
C89     C91       0.121 .         A 
C90     C92       0.121 .         A 
C91     C95       0.125 .         A 
C92     C96       0.125 .         A 
O657    C97       0.103 .         A 
O111    C158      0.114 .         A 
O112    C159      0.114 .         A 
O113    C156      0.116 .         A 
O114    C157      0.116 .         A 
O115    C207      0.103 .         A 
O116    C159      0.103 .         A 
O117    C853      0.103 1_455     A 
O118    C157      0.103 .         A 
N119    C141      0.123 .         A 
N119    C144      0.109 .         A 
N120    C142      0.124 .         A 
N120    C145      0.109 .         A 
N121    C137      0.121 .         A 
N121    C147      0.108 .         A 
N122    C138      0.121 .         A 
N122    C148      0.108 .         A 
C123    C141      0.121 .         A 
C123    C451      0.113 .         A 
C124    C142      0.121 .         A 
C124    C452      0.113 1_545     A 
C127    C453      0.128 1_545     A 
C447    C127      0.113 1_565     A 
C128    C454      0.128 .         A 
C448    C128      0.113 .         A 
C129    C144      0.120 .         A 
C451    C129      0.128 .         A 
C130    C145      0.120 .         A 
C452    C130      0.128 1_565     A 
C133    C137      0.122 .         A 
C133    C154      0.112 .         A 
C134    C138      0.122 .         A 
C134    C155      0.112 .         A 
C147    C150      0.121 .         A 
C148    C151      0.121 .         A 
C150    C154      0.125 .         A 
C151    C155      0.125 .         A 
C156    O168      0.103 .         A 
C158    O814      0.103 1_455     A 
O162    C207      0.114 .         A 
O163    C208      0.114 .         A 
O164    C205      0.116 .         A 
O165    C206      0.116 .         A 
C806    O166      0.103 .         A 
O167    C208      0.103 .         A 
O169    C206      0.103 .         A 
N170    C191      0.123 .         A 
N170    C195      0.109 .         A 
N171    C196      0.109 .         A 
N171    C192      0.124 .         A 
N172    C188      0.121 .         A 
N172    C197      0.108 .         A 
N173    C189      0.121 .         A 
N173    C198      0.108 .         A 
C174    C191      0.121 .         A 
C174    C502      0.113 .         A 
C175    C192      0.121 .         A 
C175    C503      0.113 1_545     A 
C178    C504      0.128 1_545     A 
C498    C178      0.113 1_565     A 
C179    C505      0.128 .         A 
C499    C179      0.113 .         A 
C180    C195      0.120 .         A 
C502    C180      0.128 .         A 
C181    C196      0.120 .         A 
C503    C181      0.128 1_565     A 
C184    C188      0.122 .         A 
C184    C203      0.112 .         A 
C185    C189      0.122 .         A 
C185    C204      0.112 .         A 
C197    C199      0.121 .         A 
C198    C200      0.121 .         A 
C199    C203      0.125 .         A 
C200    C204      0.125 .         A 
O765    C205      0.103 .         A 
O219    C266      0.114 .         A 
O220    C267      0.114 .         A 
O221    C264      0.116 .         A 
O222    C265      0.116 .         A 
O223    C315      0.103 .         A 
O224    C267      0.103 .         A 
O225    C961      0.103 1_455     A 
O226    C265      0.103 .         A 
N227    C249      0.123 .         A 
N227    C252      0.109 .         A 
N228    C250      0.124 .         A 
N228    C253      0.109 .         A 
N229    C245      0.121 .         A 
N229    C255      0.108 .         A 
N230    C246      0.121 .         A 
N230    C256      0.108 .         A 
C231    C249      0.121 .         A 
C231    C559      0.113 .         A 
C232    C250      0.121 .         A 
C232    C560      0.113 1_545     A 
C235    C561      0.128 1_545     A 
C555    C235      0.113 1_565     A 
C236    C562      0.128 .         A 
C556    C236      0.113 .         A 
C237    C252      0.120 .         A 
C559    C237      0.128 .         A 
C238    C253      0.120 .         A 
C560    C238      0.128 1_565     A 
C241    C245      0.122 .         A 
C241    C262      0.112 .         A 
C242    C246      0.122 .         A 
C242    C263      0.112 .         A 
C255    C258      0.121 .         A 
C256    C259      0.121 .         A 
C258    C262      0.125 .         A 
C259    C263      0.125 .         A 
C264    O276      0.103 .         A 
C266    O922      0.103 1_455     A 
O270    C315      0.114 .         A 
O271    C316      0.114 .         A 
O272    C313      0.116 .         A 
O273    C314      0.116 .         A 
C914    O274      0.103 .         A 
O275    C316      0.103 .         A 
O277    C314      0.103 .         A 
N278    C299      0.123 .         A 
N278    C303      0.109 .         A 
N279    C304      0.109 .         A 
N279    C300      0.124 .         A 
N280    C296      0.121 .         A 
N280    C305      0.108 .         A 
N281    C297      0.121 .         A 
N281    C306      0.108 .         A 
C282    C299      0.121 .         A 
C282    C610      0.113 .         A 
C283    C300      0.121 .         A 
C283    C611      0.113 1_545     A 
C286    C612      0.128 1_545     A 
C606    C286      0.113 1_565     A 
C287    C613      0.128 .         A 
C607    C287      0.113 .         A 
C288    C303      0.120 .         A 
C610    C288      0.128 .         A 
C289    C304      0.120 .         A 
C611    C289      0.128 1_565     A 
C292    C296      0.122 .         A 
C292    C311      0.112 .         A 
C293    C297      0.122 .         A 
C293    C312      0.112 .         A 
C305    C307      0.121 .         A 
C306    C308      0.121 .         A 
C307    C311      0.125 .         A 
C308    C312      0.125 .         A 
O873    C313      0.103 .         A 
O327    C374      0.114 .         A 
O328    C375      0.114 .         A 
O329    C372      0.116 .         A 
O330    C373      0.116 .         A 
O331    C423      0.103 .         A 
O332    C375      0.103 .         A 
O333    C1069     0.103 1_455     A 
O334    C373      0.103 .         A 
N335    C357      0.123 .         A 
N335    C360      0.109 .         A 
N336    C358      0.124 .         A 
N336    C361      0.109 .         A 
N337    C353      0.121 .         A 
N337    C363      0.108 .         A 
N338    C354      0.121 .         A 
N338    C364      0.108 .         A 
C339    C357      0.121 .         A 
C340    C358      0.121 .         A 
C345    C360      0.120 .         A 
C346    C361      0.120 .         A 
C349    C353      0.122 .         A 
C349    C370      0.112 .         A 
C350    C354      0.122 .         A 
C350    C371      0.112 .         A 
C363    C366      0.121 .         A 
C364    C367      0.121 .         A 
C366    C370      0.125 .         A 
C367    C371      0.125 .         A 
C372    O384      0.103 .         A 
C374    O1030     0.103 1_455     A 
O378    C423      0.114 .         A 
O379    C424      0.114 .         A 
O380    C421      0.116 .         A 
O381    C422      0.116 .         A 
C1022   O382      0.103 .         A 
O383    C424      0.103 .         A 
O385    C422      0.103 .         A 
N386    C407      0.123 .         A 
N386    C411      0.109 .         A 
N387    C412      0.109 .         A 
N387    C408      0.124 .         A 
N388    C404      0.121 .         A 
N388    C413      0.108 .         A 
N389    C405      0.121 .         A 
N389    C414      0.108 .         A 
C390    C407      0.121 .         A 
C391    C408      0.121 .         A 
C396    C411      0.120 .         A 
C397    C412      0.120 .         A 
C400    C404      0.122 .         A 
C400    C419      0.112 .         A 
C401    C405      0.122 .         A 
C401    C420      0.112 .         A 
C413    C415      0.121 .         A 
C414    C416      0.121 .         A 
C415    C419      0.125 .         A 
C416    C420      0.125 .         A 
O981    C421      0.103 .         A 
O435    C482      0.114 .         A 
O436    C483      0.114 .         A 
O437    C480      0.116 .         A 
O438    C481      0.116 .         A 
O439    C531      0.103 .         A 
O440    C483      0.103 .         A 
O441    C1177     0.103 1_455     A 
O442    C481      0.103 .         A 
N443    C465      0.123 .         A 
N443    C468      0.109 .         A 
N444    C466      0.124 .         A 
N444    C469      0.109 .         A 
N445    C461      0.121 .         A 
N445    C471      0.108 .         A 
N446    C462      0.121 .         A 
N446    C472      0.108 .         A 
C447    C465      0.121 .         A 
C448    C466      0.121 .         A 
C453    C468      0.120 .         A 
C454    C469      0.120 .         A 
C457    C461      0.122 .         A 
C457    C478      0.112 .         A 
C458    C462      0.122 .         A 
C458    C479      0.112 .         A 
C471    C474      0.121 .         A 
C472    C475      0.121 .         A 
C474    C478      0.125 .         A 
C475    C479      0.125 .         A 
C480    O492      0.103 .         A 
C482    O1138     0.103 1_455     A 
O486    C531      0.114 .         A 
O487    C532      0.114 .         A 
O488    C529      0.116 .         A 
O489    C530      0.116 .         A 
C1130   O490      0.103 .         A 
O491    C532      0.103 .         A 
O493    C530      0.103 .         A 
N494    C515      0.123 .         A 
N494    C519      0.109 .         A 
N495    C520      0.109 .         A 
N495    C516      0.124 .         A 
N496    C512      0.121 .         A 
N496    C521      0.108 .         A 
N497    C513      0.121 .         A 
N497    C522      0.108 .         A 
C498    C515      0.121 .         A 
C499    C516      0.121 .         A 
C504    C519      0.120 .         A 
C505    C520      0.120 .         A 
C508    C512      0.122 .         A 
C508    C527      0.112 .         A 
C509    C513      0.122 .         A 
C509    C528      0.112 .         A 
C521    C523      0.121 .         A 
C522    C524      0.121 .         A 
C523    C527      0.125 .         A 
C524    C528      0.125 .         A 
O1089   C529      0.103 .         A 
O543    C590      0.114 .         A 
O544    C591      0.114 .         A 
O545    C588      0.116 .         A 
O546    C589      0.116 .         A 
O547    C639      0.103 .         A 
O548    C591      0.103 .         A 
O549    C1285     0.103 1_455     A 
O550    C589      0.103 .         A 
N551    C573      0.123 .         A 
N551    C576      0.109 .         A 
N552    C574      0.124 .         A 
N552    C577      0.109 .         A 
N553    C569      0.121 .         A 
N553    C579      0.108 .         A 
N554    C570      0.121 .         A 
N554    C580      0.108 .         A 
C555    C573      0.121 .         A 
C556    C574      0.121 .         A 
C561    C576      0.120 .         A 
C562    C577      0.120 .         A 
C565    C569      0.122 .         A 
C565    C586      0.112 .         A 
C566    C570      0.122 .         A 
C566    C587      0.112 .         A 
C579    C582      0.121 .         A 
C580    C583      0.121 .         A 
C582    C586      0.125 .         A 
C583    C587      0.125 .         A 
C588    O600      0.103 .         A 
C590    O1246     0.103 1_455     A 
O594    C639      0.114 .         A 
O595    C640      0.114 .         A 
O596    C637      0.116 .         A 
O597    C638      0.116 .         A 
C1238   O598      0.103 .         A 
O599    C640      0.103 .         A 
O601    C638      0.103 .         A 
N602    C623      0.123 .         A 
N602    C627      0.109 .         A 
N603    C628      0.109 .         A 
N603    C624      0.124 .         A 
N604    C620      0.121 .         A 
N604    C629      0.108 .         A 
N605    C621      0.121 .         A 
N605    C630      0.108 .         A 
C606    C623      0.121 .         A 
C607    C624      0.121 .         A 
C612    C627      0.120 .         A 
C613    C628      0.120 .         A 
C616    C620      0.122 .         A 
C616    C635      0.112 .         A 
C617    C621      0.122 .         A 
C617    C636      0.112 .         A 
C629    C631      0.121 .         A 
C630    C632      0.121 .         A 
C631    C635      0.125 .         A 
C632    C636      0.125 .         A 
O1197   C637      0.103 .         A 
O651    C698      0.114 .         A 
O652    C699      0.114 .         A 
O653    C696      0.116 .         A 
O654    C697      0.116 .         A 
O655    C747      0.103 .         A 
O656    C699      0.103 .         A 
O658    C697      0.103 .         A 
N659    C681      0.123 .         A 
N659    C684      0.109 .         A 
N660    C682      0.124 .         A 
N660    C685      0.109 .         A 
N661    C677      0.121 .         A 
N661    C687      0.108 .         A 
N662    C678      0.121 .         A 
N662    C688      0.108 .         A 
C663    C681      0.121 .         A 
C663    C991      0.113 .         A 
C664    C682      0.121 .         A 
C664    C992      0.113 1_545     A 
C667    C993      0.128 1_545     A 
C987    C667      0.113 1_565     A 
C668    C994      0.128 .         A 
C988    C668      0.113 .         A 
C669    C684      0.120 .         A 
C991    C669      0.128 .         A 
C670    C685      0.120 .         A 
C992    C670      0.128 1_565     A 
C673    C677      0.122 .         A 
C673    C694      0.112 .         A 
C674    C678      0.122 .         A 
C674    C695      0.112 .         A 
C687    C690      0.121 .         A 
C688    C691      0.121 .         A 
C690    C694      0.125 .         A 
C691    C695      0.125 .         A 
C696    O708      0.103 .         A 
O702    C747      0.114 .         A 
O703    C748      0.114 .         A 
O704    C745      0.116 .         A 
O705    C746      0.116 .         A 
O707    C748      0.103 .         A 
O709    C746      0.103 .         A 
N710    C731      0.123 .         A 
N710    C735      0.109 .         A 
N711    C736      0.109 .         A 
N711    C732      0.124 .         A 
N712    C728      0.121 .         A 
N712    C737      0.108 .         A 
N713    C729      0.121 .         A 
N713    C738      0.108 .         A 
C714    C731      0.121 .         A 
C714    C1042     0.113 .         A 
C715    C732      0.121 .         A 
C715    C1043     0.113 1_545     A 
C718    C1044     0.128 1_545     A 
C1038   C718      0.113 1_565     A 
C719    C1045     0.128 .         A 
C1039   C719      0.113 .         A 
C720    C735      0.120 .         A 
C1042   C720      0.128 .         A 
C721    C736      0.120 .         A 
C1043   C721      0.128 1_565     A 
C724    C728      0.122 .         A 
C724    C743      0.112 .         A 
C725    C729      0.122 .         A 
C725    C744      0.112 .         A 
C737    C739      0.121 .         A 
C738    C740      0.121 .         A 
C739    C743      0.125 .         A 
C740    C744      0.125 .         A 
O759    C806      0.114 .         A 
O760    C807      0.114 .         A 
O761    C804      0.116 .         A 
O762    C805      0.116 .         A 
O763    C855      0.103 .         A 
O764    C807      0.103 .         A 
O766    C805      0.103 .         A 
N767    C789      0.123 .         A 
N767    C792      0.109 .         A 
N768    C790      0.124 .         A 
N768    C793      0.109 .         A 
N769    C785      0.121 .         A 
N769    C795      0.108 .         A 
N770    C786      0.121 .         A 
N770    C796      0.108 .         A 
C771    C789      0.121 .         A 
C771    C1099     0.113 .         A 
C772    C790      0.121 .         A 
C772    C1100     0.113 1_545     A 
C775    C1101     0.128 1_545     A 
C1095   C775      0.113 1_565     A 
C776    C1102     0.128 .         A 
C1096   C776      0.113 .         A 
C777    C792      0.120 .         A 
C1099   C777      0.128 .         A 
C778    C793      0.120 .         A 
C1100   C778      0.128 1_565     A 
C781    C785      0.122 .         A 
C781    C802      0.112 .         A 
C782    C786      0.122 .         A 
C782    C803      0.112 .         A 
C795    C798      0.121 .         A 
C796    C799      0.121 .         A 
C798    C802      0.125 .         A 
C799    C803      0.125 .         A 
C804    O816      0.103 .         A 
O810    C855      0.114 .         A 
O811    C856      0.114 .         A 
O812    C853      0.116 .         A 
O813    C854      0.116 .         A 
O815    C856      0.103 .         A 
O817    C854      0.103 .         A 
N818    C839      0.123 .         A 
N818    C843      0.109 .         A 
N819    C844      0.109 .         A 
N819    C840      0.124 .         A 
N820    C836      0.121 .         A 
N820    C845      0.108 .         A 
N821    C837      0.121 .         A 
N821    C846      0.108 .         A 
C822    C839      0.121 .         A 
C822    C1150     0.113 .         A 
C823    C840      0.121 .         A 
C823    C1151     0.113 1_545     A 
C826    C1152     0.128 1_545     A 
C1146   C826      0.113 1_565     A 
C827    C1153     0.128 .         A 
C1147   C827      0.113 .         A 
C828    C843      0.120 .         A 
C1150   C828      0.128 .         A 
C829    C844      0.120 .         A 
C1151   C829      0.128 1_565     A 
C832    C836      0.122 .         A 
C832    C851      0.112 .         A 
C833    C837      0.122 .         A 
C833    C852      0.112 .         A 
C845    C847      0.121 .         A 
C846    C848      0.121 .         A 
C847    C851      0.125 .         A 
C848    C852      0.125 .         A 
O867    C914      0.114 .         A 
O868    C915      0.114 .         A 
O869    C912      0.116 .         A 
O870    C913      0.116 .         A 
O871    C963      0.103 .         A 
O872    C915      0.103 .         A 
O874    C913      0.103 .         A 
N875    C897      0.123 .         A 
N875    C900      0.109 .         A 
N876    C898      0.124 .         A 
N876    C901      0.109 .         A 
N877    C893      0.121 .         A 
N877    C903      0.108 .         A 
N878    C894      0.121 .         A 
N878    C904      0.108 .         A 
C879    C897      0.121 .         A 
C879    C1207     0.113 .         A 
C880    C898      0.121 .         A 
C880    C1208     0.113 1_545     A 
C883    C1209     0.128 1_545     A 
C1203   C883      0.113 1_565     A 
C884    C1210     0.128 .         A 
C1204   C884      0.113 .         A 
C885    C900      0.120 .         A 
C1207   C885      0.128 .         A 
C886    C901      0.120 .         A 
C1208   C886      0.128 1_565     A 
C889    C893      0.122 .         A 
C889    C910      0.112 .         A 
C890    C894      0.122 .         A 
C890    C911      0.112 .         A 
C903    C906      0.121 .         A 
C904    C907      0.121 .         A 
C906    C910      0.125 .         A 
C907    C911      0.125 .         A 
C912    O924      0.103 .         A 
O918    C963      0.114 .         A 
O919    C964      0.114 .         A 
O920    C961      0.116 .         A 
O921    C962      0.116 .         A 
O923    C964      0.103 .         A 
O925    C962      0.103 .         A 
N926    C947      0.123 .         A 
N926    C951      0.109 .         A 
N927    C952      0.109 .         A 
N927    C948      0.124 .         A 
N928    C944      0.121 .         A 
N928    C953      0.108 .         A 
N929    C945      0.121 .         A 
N929    C954      0.108 .         A 
C930    C947      0.121 .         A 
C930    C1258     0.113 .         A 
C931    C948      0.121 .         A 
C931    C1259     0.113 1_545     A 
C934    C1260     0.128 1_545     A 
C1254   C934      0.113 1_565     A 
C935    C1261     0.128 .         A 
C1255   C935      0.113 .         A 
C936    C951      0.120 .         A 
C1258   C936      0.128 .         A 
C937    C952      0.120 .         A 
C1259   C937      0.128 1_565     A 
C940    C944      0.122 .         A 
C940    C959      0.112 .         A 
C941    C945      0.122 .         A 
C941    C960      0.112 .         A 
C953    C955      0.121 .         A 
C954    C956      0.121 .         A 
C955    C959      0.125 .         A 
C956    C960      0.125 .         A 
O975    C1022     0.114 .         A 
O976    C1023     0.114 .         A 
O977    C1020     0.116 .         A 
O978    C1021     0.116 .         A 
O979    C1071     0.103 .         A 
O980    C1023     0.103 .         A 
O982    C1021     0.103 .         A 
N983    C1005     0.123 .         A 
N983    C1008     0.109 .         A 
N984    C1006     0.124 .         A 
N984    C1009     0.109 .         A 
N985    C1001     0.121 .         A 
N985    C1011     0.108 .         A 
N986    C1002     0.121 .         A 
N986    C1012     0.108 .         A 
C987    C1005     0.121 .         A 
C988    C1006     0.121 .         A 
C993    C1008     0.120 .         A 
C994    C1009     0.120 .         A 
C997    C1001     0.122 .         A 
C997    C1018     0.112 .         A 
C998    C1002     0.122 .         A 
C998    C1019     0.112 .         A 
C1011   C1014     0.121 .         A 
C1012   C1015     0.121 .         A 
C1014   C1018     0.125 .         A 
C1015   C1019     0.125 .         A 
C1020   O1032     0.103 .         A 
O1026   C1071     0.114 .         A 
O1027   C1072     0.114 .         A 
O1028   C1069     0.116 .         A 
O1029   C1070     0.116 .         A 
O1031   C1072     0.103 .         A 
O1033   C1070     0.103 .         A 
N1034   C1055     0.123 .         A 
N1034   C1059     0.109 .         A 
N1035   C1060     0.109 .         A 
N1035   C1056     0.124 .         A 
N1036   C1052     0.121 .         A 
N1036   C1061     0.108 .         A 
N1037   C1053     0.121 .         A 
N1037   C1062     0.108 .         A 
C1038   C1055     0.121 .         A 
C1039   C1056     0.121 .         A 
C1044   C1059     0.120 .         A 
C1045   C1060     0.120 .         A 
C1048   C1052     0.122 .         A 
C1048   C1067     0.112 .         A 
C1049   C1053     0.122 .         A 
C1049   C1068     0.112 .         A 
C1061   C1063     0.121 .         A 
C1062   C1064     0.121 .         A 
C1063   C1067     0.125 .         A 
C1064   C1068     0.125 .         A 
O1083   C1130     0.114 .         A 
O1084   C1131     0.114 .         A 
O1085   C1128     0.116 .         A 
O1086   C1129     0.116 .         A 
O1087   C1179     0.103 .         A 
O1088   C1131     0.103 .         A 
O1090   C1129     0.103 .         A 
N1091   C1113     0.123 .         A 
N1091   C1116     0.109 .         A 
N1092   C1114     0.124 .         A 
N1092   C1117     0.109 .         A 
N1093   C1109     0.121 .         A 
N1093   C1119     0.108 .         A 
N1094   C1110     0.121 .         A 
N1094   C1120     0.108 .         A 
C1095   C1113     0.121 .         A 
C1096   C1114     0.121 .         A 
C1101   C1116     0.120 .         A 
C1102   C1117     0.120 .         A 
C1105   C1109     0.122 .         A 
C1105   C1126     0.112 .         A 
C1106   C1110     0.122 .         A 
C1106   C1127     0.112 .         A 
C1119   C1122     0.121 .         A 
C1120   C1123     0.121 .         A 
C1122   C1126     0.125 .         A 
C1123   C1127     0.125 .         A 
C1128   O1140     0.103 .         A 
O1134   C1179     0.114 .         A 
O1135   C1180     0.114 .         A 
O1136   C1177     0.116 .         A 
O1137   C1178     0.116 .         A 
O1139   C1180     0.103 .         A 
O1141   C1178     0.103 .         A 
N1142   C1163     0.123 .         A 
N1142   C1167     0.109 .         A 
N1143   C1168     0.109 .         A 
N1143   C1164     0.124 .         A 
N1144   C1160     0.121 .         A 
N1144   C1169     0.108 .         A 
N1145   C1161     0.121 .         A 
N1145   C1170     0.108 .         A 
C1146   C1163     0.121 .         A 
C1147   C1164     0.121 .         A 
C1152   C1167     0.120 .         A 
C1153   C1168     0.120 .         A 
C1156   C1160     0.122 .         A 
C1156   C1175     0.112 .         A 
C1157   C1161     0.122 .         A 
C1157   C1176     0.112 .         A 
C1169   C1171     0.121 .         A 
C1170   C1172     0.121 .         A 
C1171   C1175     0.125 .         A 
C1172   C1176     0.125 .         A 
O1191   C1238     0.114 .         A 
O1192   C1239     0.114 .         A 
O1193   C1236     0.116 .         A 
O1194   C1237     0.116 .         A 
O1195   C1287     0.103 .         A 
O1196   C1239     0.103 .         A 
O1198   C1237     0.103 .         A 
N1199   C1221     0.123 .         A 
N1199   C1224     0.109 .         A 
N1200   C1222     0.124 .         A 
N1200   C1225     0.109 .         A 
N1201   C1217     0.121 .         A 
N1201   C1227     0.108 .         A 
N1202   C1218     0.121 .         A 
N1202   C1228     0.108 .         A 
C1203   C1221     0.121 .         A 
C1204   C1222     0.121 .         A 
C1209   C1224     0.120 .         A 
C1210   C1225     0.120 .         A 
C1213   C1217     0.122 .         A 
C1213   C1234     0.112 .         A 
C1214   C1218     0.122 .         A 
C1214   C1235     0.112 .         A 
C1227   C1230     0.121 .         A 
C1228   C1231     0.121 .         A 
C1230   C1234     0.125 .         A 
C1231   C1235     0.125 .         A 
C1236   O1248     0.103 .         A 
O1242   C1287     0.114 .         A 
O1243   C1288     0.114 .         A 
O1244   C1285     0.116 .         A 
O1245   C1286     0.116 .         A 
O1247   C1288     0.103 .         A 
O1249   C1286     0.103 .         A 
N1250   C1271     0.123 .         A 
N1250   C1275     0.109 .         A 
N1251   C1276     0.109 .         A 
N1251   C1272     0.124 .         A 
N1252   C1268     0.121 .         A 
N1252   C1277     0.108 .         A 
N1253   C1269     0.121 .         A 
N1253   C1278     0.108 .         A 
C1254   C1271     0.121 .         A 
C1255   C1272     0.121 .         A 
C1260   C1275     0.120 .         A 
C1261   C1276     0.120 .         A 
C1264   C1268     0.122 .         A 
C1264   C1283     0.112 .         A 
C1265   C1269     0.122 .         A 
C1265   C1284     0.112 .         A 
C1277   C1279     0.121 .         A 
C1278   C1280     0.121 .         A 
C1279   C1283     0.125 .         A 
C1280   C1284     0.125 .         A 
