data_NiPyC2_relax_sc211_meta_functionalized_C-3CH3lammps_PM
_symmetry_space_group_name_H-M	'P1'
_cell_length_a	31.040820
_cell_length_b	22.017954
_cell_length_c	21.055829
_cell_angle_alpha	90.000000
_cell_angle_beta	91.268998
_cell_angle_gamma	90.000000
_symmetry_Int_Tables_number 1

loop_
_symmetry_equiv_pos_as_xyz
'x,y,z'

loop_
_atom_site_label
_atom_site_type_symbol
_atom_site_fract_x
_atom_site_fract_y
_atom_site_fract_z
Ni1	Ni	0.090050	0.414105	0.409329
Ni2	Ni	0.214059	0.159191	0.154471
O1	O	0.022704	0.196659	0.177041
O2	O	0.137259	0.371541	0.414286
O3	O	0.164500	0.118271	0.161175
O4	O	0.041845	0.456632	0.419397
O5	O	0.204814	0.213148	0.218302
O6	O	0.079581	0.359139	0.470155
O7	O	-0.012580	0.094263	0.223614
O8	O	0.105493	0.466792	0.469159
N1	N	0.111950	0.470066	0.343601
N2	N	-0.001514	0.105438	0.097250
N3	N	0.065247	0.358909	0.346789
N4	N	0.189248	0.217105	0.092935
C1	C	0.110070	0.040733	0.253029
C2	C	0.061615	0.076996	0.037635
H1	H	0.091673	0.062126	0.214975
H2	H	0.239485	0.457631	0.035684
C3	C	0.155290	0.053138	0.261016
C4	C	0.042998	0.521924	0.019553
C5	C	0.173582	0.531534	0.318652
C6	C	0.002563	0.506845	0.047651
H3	H	-0.024364	0.519989	0.322985
C7	C	0.052669	0.316313	0.241622
C8	C	0.186374	0.271725	0.491144
H4	H	0.057894	0.318447	0.191008
H5	H	-0.032297	0.292081	0.470326
C9	C	0.074483	0.358089	0.283468
C10	C	0.209539	0.238092	0.040405
H6	H	0.097920	0.388711	0.264923
H7	H	0.006972	0.230941	0.053613
C11	C	0.088162	0.502549	0.298857
C12	C	0.039767	0.117337	0.077623
H8	H	0.053602	0.497998	0.296135
H9	H	0.196721	0.527760	0.100785
C13	C	0.155752	0.477855	0.343326
C14	C	-0.021614	0.055612	0.072989
H10	H	0.175434	0.452122	0.375313
H11	H	0.439440	0.047090	0.085974
C15	C	0.034074	0.320128	0.367120
C16	C	0.146464	0.231546	0.100146
H12	H	0.017724	0.329531	0.410398
H13	H	0.129432	0.214006	0.140396
C17	C	0.024814	0.266451	0.333307
C18	C	0.124314	0.271463	0.058262
H14	H	0.223782	0.343403	0.263427
H15	H	0.091462	0.284213	0.068277
C19	C	0.025549	0.270868	0.266872
C20	C	0.143892	0.293269	0.003620
C21	C	0.182830	0.085622	0.208348
C22	C	0.063943	0.485681	0.466312
C23	C	0.002906	0.225054	0.223938
C24	C	0.119462	0.338499	0.460070
Ni3	Ni	0.344707	0.402437	0.415779
Ni4	Ni	-0.025088	0.153848	0.166339
O9	O	0.263925	0.200406	0.163020
O10	O	0.392462	0.358314	0.422320
O11	O	0.419172	0.110025	0.169737
O12	O	0.297054	0.446025	0.422228
O13	O	-0.037893	0.203437	0.230775
O14	O	0.331477	0.345039	0.472484
O15	O	0.225714	0.101827	0.214239
O16	O	0.356236	0.454088	0.481994
N5	N	0.370181	0.459330	0.356480
N6	N	0.235701	0.105166	0.084143
N7	N	0.320226	0.352657	0.344904
N8	N	0.443620	0.212649	0.106225
C25	C	0.365759	0.518927	0.260245
C26	C	0.250300	0.503930	0.041016
H16	H	0.093308	0.088739	0.021474
C27	C	0.412097	0.533651	0.263431
C28	C	0.288980	0.522537	0.011432
C29	C	0.434601	0.508926	0.315603
C30	C	0.297219	0.086440	0.011073
C31	C	0.319542	0.275083	0.264503
C32	C	0.442896	0.273394	0.009368
C33	C	0.335690	0.297843	0.324641
C34	C	-0.027305	0.236540	0.055891
H17	H	0.365308	0.280053	0.344782
H18	H	0.243645	0.235890	0.039687
C35	C	0.346452	0.490868	0.313645
C36	C	0.224938	0.044937	0.078114
H19	H	0.312627	0.495518	0.320863
H20	H	0.055884	0.158804	0.090893
C37	C	0.414202	0.468254	0.358256
C38	C	0.271324	0.125373	0.050882
H21	H	0.433500	0.447991	0.395893
H22	H	0.285903	0.166809	0.065954
C39	C	0.280876	0.370443	0.317927
C40	C	0.401164	0.227283	0.112927
H23	H	0.268891	0.415649	0.324941
H24	H	0.383959	0.209208	0.152449
C41	C	0.255224	0.329763	0.279570
C42	C	0.378214	0.261366	0.066834
C43	C	0.273392	0.276029	0.256648
C44	C	0.398467	0.286457	0.015334
C45	C	0.437855	0.075340	0.215028
C46	C	0.314897	0.475730	0.470804
C47	C	0.246725	0.231908	0.210749
C48	C	0.372917	0.324825	0.465914
C49	C	0.194171	0.075497	0.366698
C50	C	0.177904	0.064375	0.435128
H25	H	0.142339	0.069344	0.435921
H26	H	0.186587	0.518704	0.453310
H27	H	0.192337	0.097592	0.468992
C51	C	0.183619	0.141525	0.350641
H28	H	0.150448	0.147511	0.331723
H29	H	0.185433	0.169320	0.393928
H30	H	0.206850	0.159095	0.316464
C52	C	0.242692	0.066050	0.366903
H31	H	0.249854	0.519458	0.382377
H32	H	0.255964	0.072141	0.319138
H33	H	0.258551	0.099034	0.399289
C53	C	-0.006241	0.444227	0.077860
C54	C	0.440881	0.422388	0.056659
H34	H	0.416135	0.457059	0.062538
H35	H	0.431144	0.382035	0.084190
H36	H	0.440092	0.411232	0.005369
C55	C	0.024773	0.394657	0.058718
H37	H	0.016746	0.383326	0.008883
H38	H	0.020449	0.351995	0.085461
H39	H	0.058488	0.409137	0.067376
C56	C	-0.003536	0.450499	0.151565
H40	H	-0.035490	0.460529	0.171486
H41	H	0.019056	0.487162	0.166689
H42	H	0.008525	0.408889	0.175158
C57	C	0.029919	0.204627	0.367246
C58	C	0.053595	0.212068	0.432197
H43	H	0.037446	0.244654	0.463294
H44	H	0.055558	0.168257	0.457474
H45	H	0.086905	0.228041	0.425036
C59	C	0.058871	0.161023	0.328648
H46	H	0.085168	0.186694	0.305865
H47	H	0.074470	0.125617	0.358903
H48	H	0.040869	0.136796	0.291082
C60	C	-0.015291	0.177295	0.378243
H49	H	-0.039770	0.213372	0.384899
H50	H	-0.026218	0.148596	0.337834
H51	H	-0.015766	0.148714	0.421591
C61	C	0.209833	0.291750	0.430750
C62	C	0.250651	0.253383	0.422289
H52	H	0.276883	0.269891	0.452971
H53	H	0.263047	0.254524	0.374321
H54	H	0.244900	0.204974	0.433308
C63	C	0.181935	0.282831	0.368025
H55	H	0.150429	0.260883	0.376225
H56	H	0.197710	0.255293	0.331972
H57	H	0.176521	0.325097	0.340785
C64	C	0.222970	0.359174	0.440934
H58	H	0.202645	0.383661	0.475144
H59	H	0.221706	0.384721	0.396526
H60	H	0.255509	0.364164	0.460651
C65	C	0.337456	0.523173	0.200323
C66	C	0.295067	0.485340	0.204262
H61	H	0.302293	0.438555	0.219841
H62	H	0.278207	0.481825	0.157784
H63	H	0.271593	0.505547	0.236944
C67	C	0.323341	0.089169	0.191808
H64	H	0.348576	0.121755	0.182017
H65	H	0.307448	0.105318	0.235220
H66	H	0.299895	0.091663	0.153250
C68	C	0.360598	0.494528	0.145097
H67	H	0.366331	0.445407	0.153769
H68	H	0.391665	0.514285	0.139422
H69	H	0.342028	0.499520	0.100658
C69	C	0.339338	0.113694	0.482336
C70	C	0.334161	0.179905	0.460902
H70	H	0.321817	0.209770	-0.002212
H71	H	0.313517	0.181454	0.417839
H72	H	0.365415	0.199047	0.446004
C71	C	0.374299	0.109913	0.033358
H73	H	0.362835	0.129216	0.078062
H74	H	0.404476	0.132681	0.018801
H75	H	0.380850	0.061489	0.040941
C72	C	0.356590	0.083011	0.422761
H76	H	0.381982	0.110409	0.400252
H77	H	0.330155	0.076249	0.387870
H78	H	0.374980	0.042420	0.434241
C73	C	0.344345	0.298582	0.209865
C74	C	0.388454	0.324791	0.222036
H79	H	0.385921	0.366913	0.250727
H80	H	0.408979	0.291352	0.247170
H81	H	0.403646	0.337617	0.177161
C75	C	0.320323	0.321722	0.152921
H82	H	0.294957	0.353292	0.167190
H83	H	0.341607	0.347714	0.121542
H84	H	0.306580	0.282677	0.127068
C76	C	0.379001	0.168553	0.295722
H85	H	0.021777	0.063699	0.391285
H86	H	0.288112	0.166854	0.317016
H87	H	0.438901	0.316431	0.343224
C77	C	0.220083	0.352668	0.116013
C78	C	0.150361	0.316661	0.209269
H88	H	0.278851	0.320301	0.043993
H89	H	-0.022530	0.317119	0.156421
H90	H	-0.043643	0.053693	0.445125
C79	C	0.195620	0.443218	0.208965
H91	H	-0.030390	0.371373	0.254261
H92	H	0.003525	0.427422	0.320388
H93	H	0.119015	0.530690	0.118555
C80	C	0.144632	0.423904	0.080091
H94	H	0.134947	0.165906	0.483657
H95	H	0.300542	0.413523	0.075198
H96	H	0.087976	0.441278	0.171926
Ni5	Ni	0.090050	0.414105	0.909329
Ni6	Ni	0.214059	0.159191	0.654471
O17	O	0.022704	0.196659	0.677041
O18	O	0.137259	0.371541	0.914286
O19	O	0.164500	0.118271	0.661175
O20	O	0.041845	0.456632	0.919397
O21	O	0.204814	0.213148	0.718302
O22	O	0.079581	0.359139	0.970155
O23	O	-0.012580	0.094263	0.723614
O24	O	0.105493	0.466792	0.969159
N9	N	0.111950	0.470066	0.843601
N10	N	-0.001514	0.105438	0.597250
N11	N	0.065247	0.358909	0.846789
N12	N	0.189248	0.217105	0.592935
C81	C	0.110070	0.040733	0.753029
C82	C	0.061615	0.076996	0.537635
H97	H	0.091673	0.062126	0.714975
H98	H	0.239485	0.457631	0.535684
C83	C	0.155290	0.053138	0.761016
C84	C	0.042998	0.521924	0.519553
C85	C	0.173582	0.531534	0.818652
C86	C	0.002563	0.506845	0.547651
H99	H	-0.024364	0.519989	0.822985
C87	C	0.052669	0.316313	0.741622
C88	C	0.186374	0.271725	0.991144
H100	H	0.057894	0.318447	0.691008
H101	H	-0.032297	0.292081	0.970326
C89	C	0.074483	0.358089	0.783468
C90	C	0.209539	0.238092	0.540405
H102	H	0.097920	0.388711	0.764923
H103	H	0.006972	0.230941	0.553613
C91	C	0.088162	0.502549	0.798857
C92	C	0.039767	0.117337	0.577623
H104	H	0.053602	0.497998	0.796135
H105	H	0.196721	0.527760	0.600785
C93	C	0.155752	0.477855	0.843326
C94	C	-0.021614	0.055612	0.572989
H106	H	0.175434	0.452122	0.875313
H107	H	0.439440	0.047090	0.585974
C95	C	0.034074	0.320128	0.867120
C96	C	0.146464	0.231546	0.600146
H108	H	0.017724	0.329531	0.910398
H109	H	0.129432	0.214006	0.640396
C97	C	0.024814	0.266451	0.833307
C98	C	0.124314	0.271463	0.558262
H110	H	0.223782	0.343403	0.763427
H111	H	0.091462	0.284213	0.568277
C99	C	0.025549	0.270868	0.766872
C100	C	0.143892	0.293269	0.503620
C101	C	0.182830	0.085622	0.708348
C102	C	0.063943	0.485681	0.966312
C103	C	0.002906	0.225054	0.723938
C104	C	0.119462	0.338499	0.960070
Ni7	Ni	0.344707	0.402437	0.915779
Ni8	Ni	-0.025088	0.153848	0.666339
O25	O	0.263925	0.200406	0.663020
O26	O	0.392462	0.358314	0.922320
O27	O	0.419172	0.110025	0.669737
O28	O	0.297054	0.446025	0.922228
O29	O	-0.037893	0.203437	0.730775
O30	O	0.331477	0.345039	0.972484
O31	O	0.225714	0.101827	0.714239
O32	O	0.356236	0.454088	0.981994
N13	N	0.370181	0.459330	0.856480
N14	N	0.235701	0.105166	0.584143
N15	N	0.320226	0.352657	0.844904
N16	N	0.443620	0.212649	0.606225
C105	C	0.365759	0.518927	0.760245
C106	C	0.250300	0.503930	0.541016
H112	H	0.093308	0.088739	0.521474
C107	C	0.412097	0.533651	0.763431
C108	C	0.288980	0.522537	0.511432
C109	C	0.434601	0.508926	0.815603
C110	C	0.297219	0.086440	0.511073
C111	C	0.319542	0.275083	0.764503
C112	C	0.442896	0.273394	0.509368
C113	C	0.335690	0.297843	0.824641
C114	C	-0.027305	0.236540	0.555891
H113	H	0.365308	0.280053	0.844782
H114	H	0.243645	0.235890	0.539687
C115	C	0.346452	0.490868	0.813645
C116	C	0.224938	0.044937	0.578114
H115	H	0.312627	0.495518	0.820863
H116	H	0.055884	0.158804	0.590893
C117	C	0.414202	0.468254	0.858256
C118	C	0.271324	0.125373	0.550882
H117	H	0.433500	0.447991	0.895893
H118	H	0.285903	0.166809	0.565954
C119	C	0.280876	0.370443	0.817927
C120	C	0.401164	0.227283	0.612927
H119	H	0.268891	0.415649	0.824941
H120	H	0.383959	0.209208	0.652449
C121	C	0.255224	0.329763	0.779570
C122	C	0.378214	0.261366	0.566834
C123	C	0.273392	0.276029	0.756648
C124	C	0.398467	0.286457	0.515334
C125	C	0.437855	0.075340	0.715028
C126	C	0.314897	0.475730	0.970804
C127	C	0.246725	0.231908	0.710749
C128	C	0.372917	0.324825	0.965914
C129	C	0.194171	0.075497	0.866698
C130	C	0.177904	0.064375	0.935128
H121	H	0.142339	0.069344	0.935921
H122	H	0.186587	0.518704	0.953310
H123	H	0.192337	0.097592	0.968992
C131	C	0.183619	0.141525	0.850641
H124	H	0.150448	0.147511	0.831723
H125	H	0.185433	0.169320	0.893928
H126	H	0.206850	0.159095	0.816464
C132	C	0.242692	0.066050	0.866903
H127	H	0.249854	0.519458	0.882377
H128	H	0.255964	0.072141	0.819138
H129	H	0.258551	0.099034	0.899289
C133	C	-0.006241	0.444227	0.577860
C134	C	0.440881	0.422388	0.556659
H130	H	0.416135	0.457059	0.562538
H131	H	0.431144	0.382035	0.584190
H132	H	0.440092	0.411232	0.505369
C135	C	0.024773	0.394657	0.558718
H133	H	0.016746	0.383326	0.508883
H134	H	0.020449	0.351995	0.585461
H135	H	0.058488	0.409137	0.567376
C136	C	-0.003536	0.450499	0.651565
H136	H	-0.035490	0.460529	0.671486
H137	H	0.019056	0.487162	0.666689
H138	H	0.008525	0.408889	0.675158
C137	C	0.029919	0.204627	0.867246
C138	C	0.053595	0.212068	0.932197
H139	H	0.037446	0.244654	0.963294
H140	H	0.055558	0.168257	0.957474
H141	H	0.086905	0.228041	0.925036
C139	C	0.058871	0.161023	0.828648
H142	H	0.085168	0.186694	0.805865
H143	H	0.074470	0.125617	0.858903
H144	H	0.040869	0.136796	0.791082
C140	C	-0.015291	0.177295	0.878243
H145	H	-0.039770	0.213372	0.884899
H146	H	-0.026218	0.148596	0.837834
H147	H	-0.015766	0.148714	0.921591
C141	C	0.209833	0.291750	0.930750
C142	C	0.250651	0.253383	0.922289
H148	H	0.276883	0.269891	0.952971
H149	H	0.263047	0.254524	0.874321
H150	H	0.244900	0.204974	0.933308
C143	C	0.181935	0.282831	0.868025
H151	H	0.150429	0.260883	0.876225
H152	H	0.197710	0.255293	0.831972
H153	H	0.176521	0.325097	0.840785
C144	C	0.222970	0.359174	0.940934
H154	H	0.202645	0.383661	0.975144
H155	H	0.221706	0.384721	0.896526
H156	H	0.255509	0.364164	0.960651
C145	C	0.337456	0.523173	0.700323
C146	C	0.295067	0.485340	0.704262
H157	H	0.302293	0.438555	0.719841
H158	H	0.278207	0.481825	0.657784
H159	H	0.271593	0.505547	0.736944
C147	C	0.323341	0.089169	0.691808
H160	H	0.348576	0.121755	0.682017
H161	H	0.307448	0.105318	0.735220
H162	H	0.299895	0.091663	0.653250
C148	C	0.360598	0.494528	0.645097
H163	H	0.366331	0.445407	0.653769
H164	H	0.391665	0.514285	0.639422
H165	H	0.342028	0.499520	0.600658
C149	C	0.339338	0.113694	0.982336
C150	C	0.334161	0.179905	0.960902
H166	H	0.321817	0.209770	0.497788
H167	H	0.313517	0.181454	0.917839
H168	H	0.365415	0.199047	0.946004
C151	C	0.374299	0.109913	0.533358
H169	H	0.362835	0.129216	0.578062
H170	H	0.404476	0.132681	0.518801
H171	H	0.380850	0.061489	0.540941
C152	C	0.356590	0.083011	0.922761
H172	H	0.381982	0.110409	0.900252
H173	H	0.330155	0.076249	0.887870
H174	H	0.374980	0.042420	0.934241
C153	C	0.344345	0.298582	0.709865
C154	C	0.388454	0.324791	0.722036
H175	H	0.385921	0.366913	0.750727
H176	H	0.408979	0.291352	0.747170
H177	H	0.403646	0.337617	0.677161
C155	C	0.320323	0.321722	0.652921
H178	H	0.294957	0.353292	0.667190
H179	H	0.341607	0.347714	0.621542
H180	H	0.306580	0.282677	0.627068
C156	C	0.379001	0.168553	0.795722
H181	H	0.021777	0.063699	0.891285
H182	H	0.288112	0.166854	0.817016
H183	H	0.438901	0.316431	0.843224
C157	C	0.220083	0.352668	0.616013
C158	C	0.150361	0.316661	0.709269
H184	H	0.278851	0.320301	0.543993
H185	H	-0.022530	0.317119	0.656421
H186	H	-0.043643	0.053693	0.945125
C159	C	0.195620	0.443218	0.708965
H187	H	-0.030390	0.371373	0.754261
H188	H	0.003525	0.427422	0.820388
H189	H	0.119015	0.530690	0.618555
C160	C	0.144632	0.423904	0.580091
H190	H	0.134947	0.165906	0.983657
H191	H	0.300542	0.413523	0.575198
H192	H	0.087976	0.441278	0.671926
Ni9	Ni	0.090050	0.914105	0.409329
Ni10	Ni	0.214059	0.659191	0.154471
O33	O	0.022704	0.696659	0.177041
O34	O	0.137259	0.871541	0.414286
O35	O	0.164500	0.618271	0.161175
O36	O	0.041845	0.956632	0.419397
O37	O	0.204814	0.713148	0.218302
O38	O	0.079581	0.859139	0.470155
O39	O	-0.012580	0.594263	0.223614
O40	O	0.105493	0.966792	0.469159
N17	N	0.111950	0.970066	0.343601
N18	N	-0.001514	0.605438	0.097250
N19	N	0.065247	0.858909	0.346789
N20	N	0.189248	0.717105	0.092935
C161	C	0.110070	0.540733	0.253029
C162	C	0.061615	0.576996	0.037635
H193	H	0.091673	0.562126	0.214975
H194	H	0.239485	0.957631	0.035684
C163	C	0.155290	0.553138	0.261016
C164	C	0.042998	1.021924	0.019553
C165	C	0.173582	1.031534	0.318652
C166	C	0.002563	1.006845	0.047651
H195	H	-0.024364	1.019989	0.322985
C167	C	0.052669	0.816313	0.241622
C168	C	0.186374	0.771725	0.491144
H196	H	0.057894	0.818447	0.191008
H197	H	-0.032297	0.792081	0.470326
C169	C	0.074483	0.858089	0.283468
C170	C	0.209539	0.738092	0.040405
H198	H	0.097920	0.888711	0.264923
H199	H	0.006972	0.730941	0.053613
C171	C	0.088162	1.002549	0.298857
C172	C	0.039767	0.617337	0.077623
H200	H	0.053602	0.997998	0.296135
H201	H	0.196721	1.027760	0.100785
C173	C	0.155752	0.977855	0.343326
C174	C	-0.021614	0.555612	0.072989
H202	H	0.175434	0.952122	0.375313
H203	H	0.439440	0.547090	0.085974
C175	C	0.034074	0.820128	0.367120
C176	C	0.146464	0.731546	0.100146
H204	H	0.017724	0.829531	0.410398
H205	H	0.129432	0.714006	0.140396
C177	C	0.024814	0.766451	0.333307
C178	C	0.124314	0.771463	0.058262
H206	H	0.223782	0.843403	0.263427
H207	H	0.091462	0.784213	0.068277
C179	C	0.025549	0.770868	0.266872
C180	C	0.143892	0.793269	0.003620
C181	C	0.182830	0.585622	0.208348
C182	C	0.063943	0.985681	0.466312
C183	C	0.002906	0.725054	0.223938
C184	C	0.119462	0.838499	0.460070
Ni11	Ni	0.344707	0.902437	0.415779
Ni12	Ni	-0.025088	0.653848	0.166339
O41	O	0.263925	0.700406	0.163020
O42	O	0.392462	0.858314	0.422320
O43	O	0.419172	0.610025	0.169737
O44	O	0.297054	0.946025	0.422228
O45	O	-0.037893	0.703437	0.230775
O46	O	0.331477	0.845039	0.472484
O47	O	0.225714	0.601827	0.214239
O48	O	0.356236	0.954088	0.481994
N21	N	0.370181	0.959330	0.356480
N22	N	0.235701	0.605166	0.084143
N23	N	0.320226	0.852657	0.344904
N24	N	0.443620	0.712649	0.106225
C185	C	0.365759	1.018927	0.260245
C186	C	0.250300	1.003930	0.041016
H208	H	0.093308	0.588739	0.021474
C187	C	0.412097	1.033651	0.263431
C188	C	0.288980	1.022537	0.011432
C189	C	0.434601	1.008926	0.315603
C190	C	0.297219	0.586440	0.011073
C191	C	0.319542	0.775083	0.264503
C192	C	0.442896	0.773394	0.009368
C193	C	0.335690	0.797843	0.324641
C194	C	-0.027305	0.736540	0.055891
H209	H	0.365308	0.780053	0.344782
H210	H	0.243645	0.735890	0.039687
C195	C	0.346452	0.990868	0.313645
C196	C	0.224938	0.544937	0.078114
H211	H	0.312627	0.995518	0.320863
H212	H	0.055884	0.658804	0.090893
C197	C	0.414202	0.968254	0.358256
C198	C	0.271324	0.625373	0.050882
H213	H	0.433500	0.947991	0.395893
H214	H	0.285903	0.666809	0.065954
C199	C	0.280876	0.870443	0.317927
C200	C	0.401164	0.727283	0.112927
H215	H	0.268891	0.915649	0.324941
H216	H	0.383959	0.709208	0.152449
C201	C	0.255224	0.829763	0.279570
C202	C	0.378214	0.761366	0.066834
C203	C	0.273392	0.776029	0.256648
C204	C	0.398467	0.786457	0.015334
C205	C	0.437855	0.575340	0.215028
C206	C	0.314897	0.975730	0.470804
C207	C	0.246725	0.731908	0.210749
C208	C	0.372917	0.824825	0.465914
C209	C	0.194171	0.575497	0.366698
C210	C	0.177904	0.564375	0.435128
H217	H	0.142339	0.569344	0.435921
H218	H	0.186587	1.018704	0.453310
H219	H	0.192337	0.597592	0.468992
C211	C	0.183619	0.641525	0.350641
H220	H	0.150448	0.647511	0.331723
H221	H	0.185433	0.669320	0.393928
H222	H	0.206850	0.659095	0.316464
C212	C	0.242692	0.566050	0.366903
H223	H	0.249854	1.019458	0.382377
H224	H	0.255964	0.572141	0.319138
H225	H	0.258551	0.599034	0.399289
C213	C	-0.006241	0.944227	0.077860
C214	C	0.440881	0.922388	0.056659
H226	H	0.416135	0.957059	0.062538
H227	H	0.431144	0.882035	0.084190
H228	H	0.440092	0.911232	0.005369
C215	C	0.024773	0.894657	0.058718
H229	H	0.016746	0.883326	0.008883
H230	H	0.020449	0.851995	0.085461
H231	H	0.058488	0.909137	0.067376
C216	C	-0.003536	0.950499	0.151565
H232	H	-0.035490	0.960529	0.171486
H233	H	0.019056	0.987162	0.166689
H234	H	0.008525	0.908889	0.175158
C217	C	0.029919	0.704627	0.367246
C218	C	0.053595	0.712068	0.432197
H235	H	0.037446	0.744654	0.463294
H236	H	0.055558	0.668257	0.457474
H237	H	0.086905	0.728041	0.425036
C219	C	0.058871	0.661023	0.328648
H238	H	0.085168	0.686694	0.305865
H239	H	0.074470	0.625617	0.358903
H240	H	0.040869	0.636796	0.291082
C220	C	-0.015291	0.677295	0.378243
H241	H	-0.039770	0.713372	0.384899
H242	H	-0.026218	0.648596	0.337834
H243	H	-0.015766	0.648714	0.421591
C221	C	0.209833	0.791750	0.430750
C222	C	0.250651	0.753383	0.422289
H244	H	0.276883	0.769891	0.452971
H245	H	0.263047	0.754524	0.374321
H246	H	0.244900	0.704974	0.433308
C223	C	0.181935	0.782831	0.368025
H247	H	0.150429	0.760883	0.376225
H248	H	0.197710	0.755293	0.331972
H249	H	0.176521	0.825097	0.340785
C224	C	0.222970	0.859174	0.440934
H250	H	0.202645	0.883661	0.475144
H251	H	0.221706	0.884721	0.396526
H252	H	0.255509	0.864164	0.460651
C225	C	0.337456	1.023173	0.200323
C226	C	0.295067	0.985340	0.204262
H253	H	0.302293	0.938555	0.219841
H254	H	0.278207	0.981825	0.157784
H255	H	0.271593	1.005547	0.236944
C227	C	0.323341	0.589169	0.191808
H256	H	0.348576	0.621755	0.182017
H257	H	0.307448	0.605318	0.235220
H258	H	0.299895	0.591663	0.153250
C228	C	0.360598	0.994528	0.145097
H259	H	0.366331	0.945407	0.153769
H260	H	0.391665	1.014285	0.139422
H261	H	0.342028	0.999520	0.100658
C229	C	0.339338	0.613694	0.482336
C230	C	0.334161	0.679905	0.460902
H262	H	0.321817	0.709770	-0.002212
H263	H	0.313517	0.681454	0.417839
H264	H	0.365415	0.699047	0.446004
C231	C	0.374299	0.609913	0.033358
H265	H	0.362835	0.629216	0.078062
H266	H	0.404476	0.632681	0.018801
H267	H	0.380850	0.561489	0.040941
C232	C	0.356590	0.583011	0.422761
H268	H	0.381982	0.610409	0.400252
H269	H	0.330155	0.576249	0.387870
H270	H	0.374980	0.542420	0.434241
C233	C	0.344345	0.798582	0.209865
C234	C	0.388454	0.824791	0.222036
H271	H	0.385921	0.866913	0.250727
H272	H	0.408979	0.791352	0.247170
H273	H	0.403646	0.837617	0.177161
C235	C	0.320323	0.821722	0.152921
H274	H	0.294957	0.853292	0.167190
H275	H	0.341607	0.847714	0.121542
H276	H	0.306580	0.782677	0.127068
C236	C	0.379001	0.668553	0.295722
H277	H	0.021777	0.563699	0.391285
H278	H	0.288112	0.666854	0.317016
H279	H	0.438901	0.816431	0.343224
C237	C	0.220083	0.852668	0.116013
C238	C	0.150361	0.816661	0.209269
H280	H	0.278851	0.820301	0.043993
H281	H	-0.022530	0.817119	0.156421
H282	H	-0.043643	0.553693	0.445125
C239	C	0.195620	0.943218	0.208965
H283	H	-0.030390	0.871373	0.254261
H284	H	0.003525	0.927422	0.320388
H285	H	0.119015	1.030690	0.118555
C240	C	0.144632	0.923904	0.080091
H286	H	0.134947	0.665906	0.483657
H287	H	0.300542	0.913523	0.075198
H288	H	0.087976	0.941278	0.171926
Ni13	Ni	0.090050	0.914105	0.909329
Ni14	Ni	0.214059	0.659191	0.654471
O49	O	0.022704	0.696659	0.677041
O50	O	0.137259	0.871541	0.914286
O51	O	0.164500	0.618271	0.661175
O52	O	0.041845	0.956632	0.919397
O53	O	0.204814	0.713148	0.718302
O54	O	0.079581	0.859139	0.970155
O55	O	-0.012580	0.594263	0.723614
O56	O	0.105493	0.966792	0.969159
N25	N	0.111950	0.970066	0.843601
N26	N	-0.001514	0.605438	0.597250
N27	N	0.065247	0.858909	0.846789
N28	N	0.189248	0.717105	0.592935
C241	C	0.110070	0.540733	0.753029
C242	C	0.061615	0.576996	0.537635
H289	H	0.091673	0.562126	0.714975
H290	H	0.239485	0.957631	0.535684
C243	C	0.155290	0.553138	0.761016
C244	C	0.042998	1.021924	0.519553
C245	C	0.173582	1.031534	0.818652
C246	C	0.002563	1.006845	0.547651
H291	H	-0.024364	1.019989	0.822985
C247	C	0.052669	0.816313	0.741622
C248	C	0.186374	0.771725	0.991144
H292	H	0.057894	0.818447	0.691008
H293	H	-0.032297	0.792081	0.970326
C249	C	0.074483	0.858089	0.783468
C250	C	0.209539	0.738092	0.540405
H294	H	0.097920	0.888711	0.764923
H295	H	0.006972	0.730941	0.553613
C251	C	0.088162	1.002549	0.798857
C252	C	0.039767	0.617337	0.577623
H296	H	0.053602	0.997998	0.796135
H297	H	0.196721	1.027760	0.600785
C253	C	0.155752	0.977855	0.843326
C254	C	-0.021614	0.555612	0.572989
H298	H	0.175434	0.952122	0.875313
H299	H	0.439440	0.547090	0.585974
C255	C	0.034074	0.820128	0.867120
C256	C	0.146464	0.731546	0.600146
H300	H	0.017724	0.829531	0.910398
H301	H	0.129432	0.714006	0.640396
C257	C	0.024814	0.766451	0.833307
C258	C	0.124314	0.771463	0.558262
H302	H	0.223782	0.843403	0.763427
H303	H	0.091462	0.784213	0.568277
C259	C	0.025549	0.770868	0.766872
C260	C	0.143892	0.793269	0.503620
C261	C	0.182830	0.585622	0.708348
C262	C	0.063943	0.985681	0.966312
C263	C	0.002906	0.725054	0.723938
C264	C	0.119462	0.838499	0.960070
Ni15	Ni	0.344707	0.902437	0.915779
Ni16	Ni	-0.025088	0.653848	0.666339
O57	O	0.263925	0.700406	0.663020
O58	O	0.392462	0.858314	0.922320
O59	O	0.419172	0.610025	0.669737
O60	O	0.297054	0.946025	0.922228
O61	O	-0.037893	0.703437	0.730775
O62	O	0.331477	0.845039	0.972484
O63	O	0.225714	0.601827	0.714239
O64	O	0.356236	0.954088	0.981994
N29	N	0.370181	0.959330	0.856480
N30	N	0.235701	0.605166	0.584143
N31	N	0.320226	0.852657	0.844904
N32	N	0.443620	0.712649	0.606225
C265	C	0.365759	1.018927	0.760245
C266	C	0.250300	1.003930	0.541016
H304	H	0.093308	0.588739	0.521474
C267	C	0.412097	1.033651	0.763431
C268	C	0.288980	1.022537	0.511432
C269	C	0.434601	1.008926	0.815603
C270	C	0.297219	0.586440	0.511073
C271	C	0.319542	0.775083	0.764503
C272	C	0.442896	0.773394	0.509368
C273	C	0.335690	0.797843	0.824641
C274	C	-0.027305	0.736540	0.555891
H305	H	0.365308	0.780053	0.844782
H306	H	0.243645	0.735890	0.539687
C275	C	0.346452	0.990868	0.813645
C276	C	0.224938	0.544937	0.578114
H307	H	0.312627	0.995518	0.820863
H308	H	0.055884	0.658804	0.590893
C277	C	0.414202	0.968254	0.858256
C278	C	0.271324	0.625373	0.550882
H309	H	0.433500	0.947991	0.895893
H310	H	0.285903	0.666809	0.565954
C279	C	0.280876	0.870443	0.817927
C280	C	0.401164	0.727283	0.612927
H311	H	0.268891	0.915649	0.824941
H312	H	0.383959	0.709208	0.652449
C281	C	0.255224	0.829763	0.779570
C282	C	0.378214	0.761366	0.566834
C283	C	0.273392	0.776029	0.756648
C284	C	0.398467	0.786457	0.515334
C285	C	0.437855	0.575340	0.715028
C286	C	0.314897	0.975730	0.970804
C287	C	0.246725	0.731908	0.710749
C288	C	0.372917	0.824825	0.965914
C289	C	0.194171	0.575497	0.866698
C290	C	0.177904	0.564375	0.935128
H313	H	0.142339	0.569344	0.935921
H314	H	0.186587	1.018704	0.953310
H315	H	0.192337	0.597592	0.968992
C291	C	0.183619	0.641525	0.850641
H316	H	0.150448	0.647511	0.831723
H317	H	0.185433	0.669320	0.893928
H318	H	0.206850	0.659095	0.816464
C292	C	0.242692	0.566050	0.866903
H319	H	0.249854	1.019458	0.882377
H320	H	0.255964	0.572141	0.819138
H321	H	0.258551	0.599034	0.899289
C293	C	-0.006241	0.944227	0.577860
C294	C	0.440881	0.922388	0.556659
H322	H	0.416135	0.957059	0.562538
H323	H	0.431144	0.882035	0.584190
H324	H	0.440092	0.911232	0.505369
C295	C	0.024773	0.894657	0.558718
H325	H	0.016746	0.883326	0.508883
H326	H	0.020449	0.851995	0.585461
H327	H	0.058488	0.909137	0.567376
C296	C	-0.003536	0.950499	0.651565
H328	H	-0.035490	0.960529	0.671486
H329	H	0.019056	0.987162	0.666689
H330	H	0.008525	0.908889	0.675158
C297	C	0.029919	0.704627	0.867246
C298	C	0.053595	0.712068	0.932197
H331	H	0.037446	0.744654	0.963294
H332	H	0.055558	0.668257	0.957474
H333	H	0.086905	0.728041	0.925036
C299	C	0.058871	0.661023	0.828648
H334	H	0.085168	0.686694	0.805865
H335	H	0.074470	0.625617	0.858903
H336	H	0.040869	0.636796	0.791082
C300	C	-0.015291	0.677295	0.878243
H337	H	-0.039770	0.713372	0.884899
H338	H	-0.026218	0.648596	0.837834
H339	H	-0.015766	0.648714	0.921591
C301	C	0.209833	0.791750	0.930750
C302	C	0.250651	0.753383	0.922289
H340	H	0.276883	0.769891	0.952971
H341	H	0.263047	0.754524	0.874321
H342	H	0.244900	0.704974	0.933308
C303	C	0.181935	0.782831	0.868025
H343	H	0.150429	0.760883	0.876225
H344	H	0.197710	0.755293	0.831972
H345	H	0.176521	0.825097	0.840785
C304	C	0.222970	0.859174	0.940934
H346	H	0.202645	0.883661	0.975144
H347	H	0.221706	0.884721	0.896526
H348	H	0.255509	0.864164	0.960651
C305	C	0.337456	1.023173	0.700323
C306	C	0.295067	0.985340	0.704262
H349	H	0.302293	0.938555	0.719841
H350	H	0.278207	0.981825	0.657784
H351	H	0.271593	1.005547	0.736944
C307	C	0.323341	0.589169	0.691808
H352	H	0.348576	0.621755	0.682017
H353	H	0.307448	0.605318	0.735220
H354	H	0.299895	0.591663	0.653250
C308	C	0.360598	0.994528	0.645097
H355	H	0.366331	0.945407	0.653769
H356	H	0.391665	1.014285	0.639422
H357	H	0.342028	0.999520	0.600658
C309	C	0.339338	0.613694	0.982336
C310	C	0.334161	0.679905	0.960902
H358	H	0.321817	0.709770	0.497788
H359	H	0.313517	0.681454	0.917839
H360	H	0.365415	0.699047	0.946004
C311	C	0.374299	0.609913	0.533358
H361	H	0.362835	0.629216	0.578062
H362	H	0.404476	0.632681	0.518801
H363	H	0.380850	0.561489	0.540941
C312	C	0.356590	0.583011	0.922761
H364	H	0.381982	0.610409	0.900252
H365	H	0.330155	0.576249	0.887870
H366	H	0.374980	0.542420	0.934241
C313	C	0.344345	0.798582	0.709865
C314	C	0.388454	0.824791	0.722036
H367	H	0.385921	0.866913	0.750727
H368	H	0.408979	0.791352	0.747170
H369	H	0.403646	0.837617	0.677161
C315	C	0.320323	0.821722	0.652921
H370	H	0.294957	0.853292	0.667190
H371	H	0.341607	0.847714	0.621542
H372	H	0.306580	0.782677	0.627068
C316	C	0.379001	0.668553	0.795722
H373	H	0.021777	0.563699	0.891285
H374	H	0.288112	0.666854	0.817016
H375	H	0.438901	0.816431	0.843224
C317	C	0.220083	0.852668	0.616013
C318	C	0.150361	0.816661	0.709269
H376	H	0.278851	0.820301	0.543993
H377	H	-0.022530	0.817119	0.656421
H378	H	-0.043643	0.553693	0.945125
C319	C	0.195620	0.943218	0.708965
H379	H	-0.030390	0.871373	0.754261
H380	H	0.003525	0.927422	0.820388
H381	H	0.119015	1.030690	0.618555
C320	C	0.144632	0.923904	0.580091
H382	H	0.134947	0.665906	0.983657
H383	H	0.300542	0.913523	0.575198
H384	H	0.087976	0.941278	0.671926
Ni17	Ni	0.590050	0.414105	0.409329
Ni18	Ni	0.714059	0.159191	0.154471
O65	O	0.522704	0.196659	0.177041
O66	O	0.637259	0.371541	0.414286
O67	O	0.664500	0.118271	0.161175
O68	O	0.541845	0.456632	0.419397
O69	O	0.704814	0.213148	0.218302
O70	O	0.579581	0.359139	0.470155
O71	O	0.487420	0.094263	0.223614
O72	O	0.605493	0.466792	0.469159
N33	N	0.611950	0.470066	0.343601
N34	N	0.498486	0.105438	0.097250
N35	N	0.565247	0.358909	0.346789
N36	N	0.689248	0.217105	0.092935
C321	C	0.610070	0.040733	0.253029
C322	C	0.561615	0.076996	0.037635
H385	H	0.591673	0.062126	0.214975
H386	H	0.739485	0.457631	0.035684
C323	C	0.655290	0.053138	0.261016
C324	C	0.542998	0.521924	0.019553
C325	C	0.673582	0.531534	0.318652
C326	C	0.502563	0.506845	0.047651
H387	H	0.475636	0.519989	0.322985
C327	C	0.552669	0.316313	0.241622
C328	C	0.686374	0.271725	0.491144
H388	H	0.557894	0.318447	0.191008
H389	H	0.467703	0.292081	0.470326
C329	C	0.574483	0.358089	0.283468
C330	C	0.709539	0.238092	0.040405
H390	H	0.597920	0.388711	0.264923
H391	H	0.506972	0.230941	0.053613
C331	C	0.588162	0.502549	0.298857
C332	C	0.539767	0.117337	0.077623
H392	H	0.553602	0.497998	0.296135
H393	H	0.696721	0.527760	0.100785
C333	C	0.655752	0.477855	0.343326
C334	C	0.478386	0.055612	0.072989
H394	H	0.675434	0.452122	0.375313
H395	H	0.939440	0.047090	0.085974
C335	C	0.534074	0.320128	0.367120
C336	C	0.646464	0.231546	0.100146
H396	H	0.517724	0.329531	0.410398
H397	H	0.629432	0.214006	0.140396
C337	C	0.524814	0.266451	0.333307
C338	C	0.624314	0.271463	0.058262
H398	H	0.723782	0.343403	0.263427
H399	H	0.591462	0.284213	0.068277
C339	C	0.525549	0.270868	0.266872
C340	C	0.643892	0.293269	0.003620
C341	C	0.682830	0.085622	0.208348
C342	C	0.563943	0.485681	0.466312
C343	C	0.502906	0.225054	0.223938
C344	C	0.619462	0.338499	0.460070
Ni19	Ni	0.844707	0.402437	0.415779
Ni20	Ni	0.474912	0.153848	0.166339
O73	O	0.763925	0.200406	0.163020
O74	O	0.892462	0.358314	0.422320
O75	O	0.919172	0.110025	0.169737
O76	O	0.797054	0.446025	0.422228
O77	O	0.462107	0.203437	0.230775
O78	O	0.831477	0.345039	0.472484
O79	O	0.725714	0.101827	0.214239
O80	O	0.856236	0.454088	0.481994
N37	N	0.870181	0.459330	0.356480
N38	N	0.735701	0.105166	0.084143
N39	N	0.820226	0.352657	0.344904
N40	N	0.943620	0.212649	0.106225
C345	C	0.865759	0.518927	0.260245
C346	C	0.750300	0.503930	0.041016
H400	H	0.593308	0.088739	0.021474
C347	C	0.912097	0.533651	0.263431
C348	C	0.788980	0.522537	0.011432
C349	C	0.934601	0.508926	0.315603
C350	C	0.797219	0.086440	0.011073
C351	C	0.819542	0.275083	0.264503
C352	C	0.942896	0.273394	0.009368
C353	C	0.835690	0.297843	0.324641
C354	C	0.472695	0.236540	0.055891
H401	H	0.865308	0.280053	0.344782
H402	H	0.743645	0.235890	0.039687
C355	C	0.846452	0.490868	0.313645
C356	C	0.724938	0.044937	0.078114
H403	H	0.812627	0.495518	0.320863
H404	H	0.555884	0.158804	0.090893
C357	C	0.914202	0.468254	0.358256
C358	C	0.771324	0.125373	0.050882
H405	H	0.933500	0.447991	0.395893
H406	H	0.785903	0.166809	0.065954
C359	C	0.780876	0.370443	0.317927
C360	C	0.901164	0.227283	0.112927
H407	H	0.768891	0.415649	0.324941
H408	H	0.883959	0.209208	0.152449
C361	C	0.755224	0.329763	0.279570
C362	C	0.878214	0.261366	0.066834
C363	C	0.773392	0.276029	0.256648
C364	C	0.898467	0.286457	0.015334
C365	C	0.937855	0.075340	0.215028
C366	C	0.814897	0.475730	0.470804
C367	C	0.746725	0.231908	0.210749
C368	C	0.872917	0.324825	0.465914
C369	C	0.694171	0.075497	0.366698
C370	C	0.677904	0.064375	0.435128
H409	H	0.642339	0.069344	0.435921
H410	H	0.686587	0.518704	0.453310
H411	H	0.692337	0.097592	0.468992
C371	C	0.683619	0.141525	0.350641
H412	H	0.650448	0.147511	0.331723
H413	H	0.685433	0.169320	0.393928
H414	H	0.706850	0.159095	0.316464
C372	C	0.742692	0.066050	0.366903
H415	H	0.749854	0.519458	0.382377
H416	H	0.755964	0.072141	0.319138
H417	H	0.758551	0.099034	0.399289
C373	C	0.493759	0.444227	0.077860
C374	C	0.940881	0.422388	0.056659
H418	H	0.916135	0.457059	0.062538
H419	H	0.931144	0.382035	0.084190
H420	H	0.940092	0.411232	0.005369
C375	C	0.524773	0.394657	0.058718
H421	H	0.516746	0.383326	0.008883
H422	H	0.520449	0.351995	0.085461
H423	H	0.558488	0.409137	0.067376
C376	C	0.496464	0.450499	0.151565
H424	H	0.464510	0.460529	0.171486
H425	H	0.519056	0.487162	0.166689
H426	H	0.508525	0.408889	0.175158
C377	C	0.529919	0.204627	0.367246
C378	C	0.553595	0.212068	0.432197
H427	H	0.537446	0.244654	0.463294
H428	H	0.555558	0.168257	0.457474
H429	H	0.586905	0.228041	0.425036
C379	C	0.558871	0.161023	0.328648
H430	H	0.585168	0.186694	0.305865
H431	H	0.574470	0.125617	0.358903
H432	H	0.540869	0.136796	0.291082
C380	C	0.484709	0.177295	0.378243
H433	H	0.460230	0.213372	0.384899
H434	H	0.473782	0.148596	0.337834
H435	H	0.484234	0.148714	0.421591
C381	C	0.709833	0.291750	0.430750
C382	C	0.750651	0.253383	0.422289
H436	H	0.776883	0.269891	0.452971
H437	H	0.763047	0.254524	0.374321
H438	H	0.744900	0.204974	0.433308
C383	C	0.681935	0.282831	0.368025
H439	H	0.650429	0.260883	0.376225
H440	H	0.697710	0.255293	0.331972
H441	H	0.676521	0.325097	0.340785
C384	C	0.722970	0.359174	0.440934
H442	H	0.702645	0.383661	0.475144
H443	H	0.721706	0.384721	0.396526
H444	H	0.755509	0.364164	0.460651
C385	C	0.837456	0.523173	0.200323
C386	C	0.795067	0.485340	0.204262
H445	H	0.802293	0.438555	0.219841
H446	H	0.778207	0.481825	0.157784
H447	H	0.771593	0.505547	0.236944
C387	C	0.823341	0.089169	0.191808
H448	H	0.848576	0.121755	0.182017
H449	H	0.807448	0.105318	0.235220
H450	H	0.799895	0.091663	0.153250
C388	C	0.860598	0.494528	0.145097
H451	H	0.866331	0.445407	0.153769
H452	H	0.891665	0.514285	0.139422
H453	H	0.842028	0.499520	0.100658
C389	C	0.839338	0.113694	0.482336
C390	C	0.834161	0.179905	0.460902
H454	H	0.821817	0.209770	-0.002212
H455	H	0.813517	0.181454	0.417839
H456	H	0.865415	0.199047	0.446004
C391	C	0.874299	0.109913	0.033358
H457	H	0.862835	0.129216	0.078062
H458	H	0.904476	0.132681	0.018801
H459	H	0.880850	0.061489	0.040941
C392	C	0.856590	0.083011	0.422761
H460	H	0.881982	0.110409	0.400252
H461	H	0.830155	0.076249	0.387870
H462	H	0.874980	0.042420	0.434241
C393	C	0.844345	0.298582	0.209865
C394	C	0.888454	0.324791	0.222036
H463	H	0.885921	0.366913	0.250727
H464	H	0.908979	0.291352	0.247170
H465	H	0.903646	0.337617	0.177161
C395	C	0.820323	0.321722	0.152921
H466	H	0.794957	0.353292	0.167190
H467	H	0.841607	0.347714	0.121542
H468	H	0.806580	0.282677	0.127068
C396	C	0.879001	0.168553	0.295722
H469	H	0.521777	0.063699	0.391285
H470	H	0.788112	0.166854	0.317016
H471	H	0.938901	0.316431	0.343224
C397	C	0.720083	0.352668	0.116013
C398	C	0.650361	0.316661	0.209269
H472	H	0.778851	0.320301	0.043993
H473	H	0.477470	0.317119	0.156421
H474	H	0.456357	0.053693	0.445125
C399	C	0.695620	0.443218	0.208965
H475	H	0.469610	0.371373	0.254261
H476	H	0.503525	0.427422	0.320388
H477	H	0.619015	0.530690	0.118555
C400	C	0.644632	0.423904	0.080091
H478	H	0.634947	0.165906	0.483657
H479	H	0.800542	0.413523	0.075198
H480	H	0.587976	0.441278	0.171926
Ni21	Ni	0.590050	0.414105	0.909329
Ni22	Ni	0.714059	0.159191	0.654471
O81	O	0.522704	0.196659	0.677041
O82	O	0.637259	0.371541	0.914286
O83	O	0.664500	0.118271	0.661175
O84	O	0.541845	0.456632	0.919397
O85	O	0.704814	0.213148	0.718302
O86	O	0.579581	0.359139	0.970155
O87	O	0.487420	0.094263	0.723614
O88	O	0.605493	0.466792	0.969159
N41	N	0.611950	0.470066	0.843601
N42	N	0.498486	0.105438	0.597250
N43	N	0.565247	0.358909	0.846789
N44	N	0.689248	0.217105	0.592935
C401	C	0.610070	0.040733	0.753029
C402	C	0.561615	0.076996	0.537635
H481	H	0.591673	0.062126	0.714975
H482	H	0.739485	0.457631	0.535684
C403	C	0.655290	0.053138	0.761016
C404	C	0.542998	0.521924	0.519553
C405	C	0.673582	0.531534	0.818652
C406	C	0.502563	0.506845	0.547651
H483	H	0.475636	0.519989	0.822985
C407	C	0.552669	0.316313	0.741622
C408	C	0.686374	0.271725	0.991144
H484	H	0.557894	0.318447	0.691008
H485	H	0.467703	0.292081	0.970326
C409	C	0.574483	0.358089	0.783468
C410	C	0.709539	0.238092	0.540405
H486	H	0.597920	0.388711	0.764923
H487	H	0.506972	0.230941	0.553613
C411	C	0.588162	0.502549	0.798857
C412	C	0.539767	0.117337	0.577623
H488	H	0.553602	0.497998	0.796135
H489	H	0.696721	0.527760	0.600785
C413	C	0.655752	0.477855	0.843326
C414	C	0.478386	0.055612	0.572989
H490	H	0.675434	0.452122	0.875313
H491	H	0.939440	0.047090	0.585974
C415	C	0.534074	0.320128	0.867120
C416	C	0.646464	0.231546	0.600146
H492	H	0.517724	0.329531	0.910398
H493	H	0.629432	0.214006	0.640396
C417	C	0.524814	0.266451	0.833307
C418	C	0.624314	0.271463	0.558262
H494	H	0.723782	0.343403	0.763427
H495	H	0.591462	0.284213	0.568277
C419	C	0.525549	0.270868	0.766872
C420	C	0.643892	0.293269	0.503620
C421	C	0.682830	0.085622	0.708348
C422	C	0.563943	0.485681	0.966312
C423	C	0.502906	0.225054	0.723938
C424	C	0.619462	0.338499	0.960070
Ni23	Ni	0.844707	0.402437	0.915779
Ni24	Ni	0.474912	0.153848	0.666339
O89	O	0.763925	0.200406	0.663020
O90	O	0.892462	0.358314	0.922320
O91	O	0.919172	0.110025	0.669737
O92	O	0.797054	0.446025	0.922228
O93	O	0.462107	0.203437	0.730775
O94	O	0.831477	0.345039	0.972484
O95	O	0.725714	0.101827	0.714239
O96	O	0.856236	0.454088	0.981994
N45	N	0.870181	0.459330	0.856480
N46	N	0.735701	0.105166	0.584143
N47	N	0.820226	0.352657	0.844904
N48	N	0.943620	0.212649	0.606225
C425	C	0.865759	0.518927	0.760245
C426	C	0.750300	0.503930	0.541016
H496	H	0.593308	0.088739	0.521474
C427	C	0.912097	0.533651	0.763431
C428	C	0.788980	0.522537	0.511432
C429	C	0.934601	0.508926	0.815603
C430	C	0.797219	0.086440	0.511073
C431	C	0.819542	0.275083	0.764503
C432	C	0.942896	0.273394	0.509368
C433	C	0.835690	0.297843	0.824641
C434	C	0.472695	0.236540	0.555891
H497	H	0.865308	0.280053	0.844782
H498	H	0.743645	0.235890	0.539687
C435	C	0.846452	0.490868	0.813645
C436	C	0.724938	0.044937	0.578114
H499	H	0.812627	0.495518	0.820863
H500	H	0.555884	0.158804	0.590893
C437	C	0.914202	0.468254	0.858256
C438	C	0.771324	0.125373	0.550882
H501	H	0.933500	0.447991	0.895893
H502	H	0.785903	0.166809	0.565954
C439	C	0.780876	0.370443	0.817927
C440	C	0.901164	0.227283	0.612927
H503	H	0.768891	0.415649	0.824941
H504	H	0.883959	0.209208	0.652449
C441	C	0.755224	0.329763	0.779570
C442	C	0.878214	0.261366	0.566834
C443	C	0.773392	0.276029	0.756648
C444	C	0.898467	0.286457	0.515334
C445	C	0.937855	0.075340	0.715028
C446	C	0.814897	0.475730	0.970804
C447	C	0.746725	0.231908	0.710749
C448	C	0.872917	0.324825	0.965914
C449	C	0.694171	0.075497	0.866698
C450	C	0.677904	0.064375	0.935128
H505	H	0.642339	0.069344	0.935921
H506	H	0.686587	0.518704	0.953310
H507	H	0.692337	0.097592	0.968992
C451	C	0.683619	0.141525	0.850641
H508	H	0.650448	0.147511	0.831723
H509	H	0.685433	0.169320	0.893928
H510	H	0.706850	0.159095	0.816464
C452	C	0.742692	0.066050	0.866903
H511	H	0.749854	0.519458	0.882377
H512	H	0.755964	0.072141	0.819138
H513	H	0.758551	0.099034	0.899289
C453	C	0.493759	0.444227	0.577860
C454	C	0.940881	0.422388	0.556659
H514	H	0.916135	0.457059	0.562538
H515	H	0.931144	0.382035	0.584190
H516	H	0.940092	0.411232	0.505369
C455	C	0.524773	0.394657	0.558718
H517	H	0.516746	0.383326	0.508883
H518	H	0.520449	0.351995	0.585461
H519	H	0.558488	0.409137	0.567376
C456	C	0.496464	0.450499	0.651565
H520	H	0.464510	0.460529	0.671486
H521	H	0.519056	0.487162	0.666689
H522	H	0.508525	0.408889	0.675158
C457	C	0.529919	0.204627	0.867246
C458	C	0.553595	0.212068	0.932197
H523	H	0.537446	0.244654	0.963294
H524	H	0.555558	0.168257	0.957474
H525	H	0.586905	0.228041	0.925036
C459	C	0.558871	0.161023	0.828648
H526	H	0.585168	0.186694	0.805865
H527	H	0.574470	0.125617	0.858903
H528	H	0.540869	0.136796	0.791082
C460	C	0.484709	0.177295	0.878243
H529	H	0.460230	0.213372	0.884899
H530	H	0.473782	0.148596	0.837834
H531	H	0.484234	0.148714	0.921591
C461	C	0.709833	0.291750	0.930750
C462	C	0.750651	0.253383	0.922289
H532	H	0.776883	0.269891	0.952971
H533	H	0.763047	0.254524	0.874321
H534	H	0.744900	0.204974	0.933308
C463	C	0.681935	0.282831	0.868025
H535	H	0.650429	0.260883	0.876225
H536	H	0.697710	0.255293	0.831972
H537	H	0.676521	0.325097	0.840785
C464	C	0.722970	0.359174	0.940934
H538	H	0.702645	0.383661	0.975144
H539	H	0.721706	0.384721	0.896526
H540	H	0.755509	0.364164	0.960651
C465	C	0.837456	0.523173	0.700323
C466	C	0.795067	0.485340	0.704262
H541	H	0.802293	0.438555	0.719841
H542	H	0.778207	0.481825	0.657784
H543	H	0.771593	0.505547	0.736944
C467	C	0.823341	0.089169	0.691808
H544	H	0.848576	0.121755	0.682017
H545	H	0.807448	0.105318	0.735220
H546	H	0.799895	0.091663	0.653250
C468	C	0.860598	0.494528	0.645097
H547	H	0.866331	0.445407	0.653769
H548	H	0.891665	0.514285	0.639422
H549	H	0.842028	0.499520	0.600658
C469	C	0.839338	0.113694	0.982336
C470	C	0.834161	0.179905	0.960902
H550	H	0.821817	0.209770	0.497788
H551	H	0.813517	0.181454	0.917839
H552	H	0.865415	0.199047	0.946004
C471	C	0.874299	0.109913	0.533358
H553	H	0.862835	0.129216	0.578062
H554	H	0.904476	0.132681	0.518801
H555	H	0.880850	0.061489	0.540941
C472	C	0.856590	0.083011	0.922761
H556	H	0.881982	0.110409	0.900252
H557	H	0.830155	0.076249	0.887870
H558	H	0.874980	0.042420	0.934241
C473	C	0.844345	0.298582	0.709865
C474	C	0.888454	0.324791	0.722036
H559	H	0.885921	0.366913	0.750727
H560	H	0.908979	0.291352	0.747170
H561	H	0.903646	0.337617	0.677161
C475	C	0.820323	0.321722	0.652921
H562	H	0.794957	0.353292	0.667190
H563	H	0.841607	0.347714	0.621542
H564	H	0.806580	0.282677	0.627068
C476	C	0.879001	0.168553	0.795722
H565	H	0.521777	0.063699	0.891285
H566	H	0.788112	0.166854	0.817016
H567	H	0.938901	0.316431	0.843224
C477	C	0.720083	0.352668	0.616013
C478	C	0.650361	0.316661	0.709269
H568	H	0.778851	0.320301	0.543993
H569	H	0.477470	0.317119	0.656421
H570	H	0.456357	0.053693	0.945125
C479	C	0.695620	0.443218	0.708965
H571	H	0.469610	0.371373	0.754261
H572	H	0.503525	0.427422	0.820388
H573	H	0.619015	0.530690	0.618555
C480	C	0.644632	0.423904	0.580091
H574	H	0.634947	0.165906	0.983657
H575	H	0.800542	0.413523	0.575198
H576	H	0.587976	0.441278	0.671926
Ni25	Ni	0.590050	0.914105	0.409329
Ni26	Ni	0.714059	0.659191	0.154471
O97	O	0.522704	0.696659	0.177041
O98	O	0.637259	0.871541	0.414286
O99	O	0.664500	0.618271	0.161175
O100	O	0.541845	0.956632	0.419397
O101	O	0.704814	0.713148	0.218302
O102	O	0.579581	0.859139	0.470155
O103	O	0.487420	0.594263	0.223614
O104	O	0.605493	0.966792	0.469159
N49	N	0.611950	0.970066	0.343601
N50	N	0.498486	0.605438	0.097250
N51	N	0.565247	0.858909	0.346789
N52	N	0.689248	0.717105	0.092935
C481	C	0.610070	0.540733	0.253029
C482	C	0.561615	0.576996	0.037635
H577	H	0.591673	0.562126	0.214975
H578	H	0.739485	0.957631	0.035684
C483	C	0.655290	0.553138	0.261016
C484	C	0.542998	1.021924	0.019553
C485	C	0.673582	1.031534	0.318652
C486	C	0.502563	1.006845	0.047651
H579	H	0.475636	1.019989	0.322985
C487	C	0.552669	0.816313	0.241622
C488	C	0.686374	0.771725	0.491144
H580	H	0.557894	0.818447	0.191008
H581	H	0.467703	0.792081	0.470326
C489	C	0.574483	0.858089	0.283468
C490	C	0.709539	0.738092	0.040405
H582	H	0.597920	0.888711	0.264923
H583	H	0.506972	0.730941	0.053613
C491	C	0.588162	1.002549	0.298857
C492	C	0.539767	0.617337	0.077623
H584	H	0.553602	0.997998	0.296135
H585	H	0.696721	1.027760	0.100785
C493	C	0.655752	0.977855	0.343326
C494	C	0.478386	0.555612	0.072989
H586	H	0.675434	0.952122	0.375313
H587	H	0.939440	0.547090	0.085974
C495	C	0.534074	0.820128	0.367120
C496	C	0.646464	0.731546	0.100146
H588	H	0.517724	0.829531	0.410398
H589	H	0.629432	0.714006	0.140396
C497	C	0.524814	0.766451	0.333307
C498	C	0.624314	0.771463	0.058262
H590	H	0.723782	0.843403	0.263427
H591	H	0.591462	0.784213	0.068277
C499	C	0.525549	0.770868	0.266872
C500	C	0.643892	0.793269	0.003620
C501	C	0.682830	0.585622	0.208348
C502	C	0.563943	0.985681	0.466312
C503	C	0.502906	0.725054	0.223938
C504	C	0.619462	0.838499	0.460070
Ni27	Ni	0.844707	0.902437	0.415779
Ni28	Ni	0.474912	0.653848	0.166339
O105	O	0.763925	0.700406	0.163020
O106	O	0.892462	0.858314	0.422320
O107	O	0.919172	0.610025	0.169737
O108	O	0.797054	0.946025	0.422228
O109	O	0.462107	0.703437	0.230775
O110	O	0.831477	0.845039	0.472484
O111	O	0.725714	0.601827	0.214239
O112	O	0.856236	0.954088	0.481994
N53	N	0.870181	0.959330	0.356480
N54	N	0.735701	0.605166	0.084143
N55	N	0.820226	0.852657	0.344904
N56	N	0.943620	0.712649	0.106225
C505	C	0.865759	1.018927	0.260245
C506	C	0.750300	1.003930	0.041016
H592	H	0.593308	0.588739	0.021474
C507	C	0.912097	1.033651	0.263431
C508	C	0.788980	1.022537	0.011432
C509	C	0.934601	1.008926	0.315603
C510	C	0.797219	0.586440	0.011073
C511	C	0.819542	0.775083	0.264503
C512	C	0.942896	0.773394	0.009368
C513	C	0.835690	0.797843	0.324641
C514	C	0.472695	0.736540	0.055891
H593	H	0.865308	0.780053	0.344782
H594	H	0.743645	0.735890	0.039687
C515	C	0.846452	0.990868	0.313645
C516	C	0.724938	0.544937	0.078114
H595	H	0.812627	0.995518	0.320863
H596	H	0.555884	0.658804	0.090893
C517	C	0.914202	0.968254	0.358256
C518	C	0.771324	0.625373	0.050882
H597	H	0.933500	0.947991	0.395893
H598	H	0.785903	0.666809	0.065954
C519	C	0.780876	0.870443	0.317927
C520	C	0.901164	0.727283	0.112927
H599	H	0.768891	0.915649	0.324941
H600	H	0.883959	0.709208	0.152449
C521	C	0.755224	0.829763	0.279570
C522	C	0.878214	0.761366	0.066834
C523	C	0.773392	0.776029	0.256648
C524	C	0.898467	0.786457	0.015334
C525	C	0.937855	0.575340	0.215028
C526	C	0.814897	0.975730	0.470804
C527	C	0.746725	0.731908	0.210749
C528	C	0.872917	0.824825	0.465914
C529	C	0.694171	0.575497	0.366698
C530	C	0.677904	0.564375	0.435128
H601	H	0.642339	0.569344	0.435921
H602	H	0.686587	1.018704	0.453310
H603	H	0.692337	0.597592	0.468992
C531	C	0.683619	0.641525	0.350641
H604	H	0.650448	0.647511	0.331723
H605	H	0.685433	0.669320	0.393928
H606	H	0.706850	0.659095	0.316464
C532	C	0.742692	0.566050	0.366903
H607	H	0.749854	1.019458	0.382377
H608	H	0.755964	0.572141	0.319138
H609	H	0.758551	0.599034	0.399289
C533	C	0.493759	0.944227	0.077860
C534	C	0.940881	0.922388	0.056659
H610	H	0.916135	0.957059	0.062538
H611	H	0.931144	0.882035	0.084190
H612	H	0.940092	0.911232	0.005369
C535	C	0.524773	0.894657	0.058718
H613	H	0.516746	0.883326	0.008883
H614	H	0.520449	0.851995	0.085461
H615	H	0.558488	0.909137	0.067376
C536	C	0.496464	0.950499	0.151565
H616	H	0.464510	0.960529	0.171486
H617	H	0.519056	0.987162	0.166689
H618	H	0.508525	0.908889	0.175158
C537	C	0.529919	0.704627	0.367246
C538	C	0.553595	0.712068	0.432197
H619	H	0.537446	0.744654	0.463294
H620	H	0.555558	0.668257	0.457474
H621	H	0.586905	0.728041	0.425036
C539	C	0.558871	0.661023	0.328648
H622	H	0.585168	0.686694	0.305865
H623	H	0.574470	0.625617	0.358903
H624	H	0.540869	0.636796	0.291082
C540	C	0.484709	0.677295	0.378243
H625	H	0.460230	0.713372	0.384899
H626	H	0.473782	0.648596	0.337834
H627	H	0.484234	0.648714	0.421591
C541	C	0.709833	0.791750	0.430750
C542	C	0.750651	0.753383	0.422289
H628	H	0.776883	0.769891	0.452971
H629	H	0.763047	0.754524	0.374321
H630	H	0.744900	0.704974	0.433308
C543	C	0.681935	0.782831	0.368025
H631	H	0.650429	0.760883	0.376225
H632	H	0.697710	0.755293	0.331972
H633	H	0.676521	0.825097	0.340785
C544	C	0.722970	0.859174	0.440934
H634	H	0.702645	0.883661	0.475144
H635	H	0.721706	0.884721	0.396526
H636	H	0.755509	0.864164	0.460651
C545	C	0.837456	1.023173	0.200323
C546	C	0.795067	0.985340	0.204262
H637	H	0.802293	0.938555	0.219841
H638	H	0.778207	0.981825	0.157784
H639	H	0.771593	1.005547	0.236944
C547	C	0.823341	0.589169	0.191808
H640	H	0.848576	0.621755	0.182017
H641	H	0.807448	0.605318	0.235220
H642	H	0.799895	0.591663	0.153250
C548	C	0.860598	0.994528	0.145097
H643	H	0.866331	0.945407	0.153769
H644	H	0.891665	1.014285	0.139422
H645	H	0.842028	0.999520	0.100658
C549	C	0.839338	0.613694	0.482336
C550	C	0.834161	0.679905	0.460902
H646	H	0.821817	0.709770	-0.002212
H647	H	0.813517	0.681454	0.417839
H648	H	0.865415	0.699047	0.446004
C551	C	0.874299	0.609913	0.033358
H649	H	0.862835	0.629216	0.078062
H650	H	0.904476	0.632681	0.018801
H651	H	0.880850	0.561489	0.040941
C552	C	0.856590	0.583011	0.422761
H652	H	0.881982	0.610409	0.400252
H653	H	0.830155	0.576249	0.387870
H654	H	0.874980	0.542420	0.434241
C553	C	0.844345	0.798582	0.209865
C554	C	0.888454	0.824791	0.222036
H655	H	0.885921	0.866913	0.250727
H656	H	0.908979	0.791352	0.247170
H657	H	0.903646	0.837617	0.177161
C555	C	0.820323	0.821722	0.152921
H658	H	0.794957	0.853292	0.167190
H659	H	0.841607	0.847714	0.121542
H660	H	0.806580	0.782677	0.127068
C556	C	0.879001	0.668553	0.295722
H661	H	0.521777	0.563699	0.391285
H662	H	0.788112	0.666854	0.317016
H663	H	0.938901	0.816431	0.343224
C557	C	0.720083	0.852668	0.116013
C558	C	0.650361	0.816661	0.209269
H664	H	0.778851	0.820301	0.043993
H665	H	0.477470	0.817119	0.156421
H666	H	0.456357	0.553693	0.445125
C559	C	0.695620	0.943218	0.208965
H667	H	0.469610	0.871373	0.254261
H668	H	0.503525	0.927422	0.320388
H669	H	0.619015	1.030690	0.118555
C560	C	0.644632	0.923904	0.080091
H670	H	0.634947	0.665906	0.483657
H671	H	0.800542	0.913523	0.075198
H672	H	0.587976	0.941278	0.171926
Ni29	Ni	0.590050	0.914105	0.909329
Ni30	Ni	0.714059	0.659191	0.654471
O113	O	0.522704	0.696659	0.677041
O114	O	0.637259	0.871541	0.914286
O115	O	0.664500	0.618271	0.661175
O116	O	0.541845	0.956632	0.919397
O117	O	0.704814	0.713148	0.718302
O118	O	0.579581	0.859139	0.970155
O119	O	0.487420	0.594263	0.723614
O120	O	0.605493	0.966792	0.969159
N57	N	0.611950	0.970066	0.843601
N58	N	0.498486	0.605438	0.597250
N59	N	0.565247	0.858909	0.846789
N60	N	0.689248	0.717105	0.592935
C561	C	0.610070	0.540733	0.753029
C562	C	0.561615	0.576996	0.537635
H673	H	0.591673	0.562126	0.714975
H674	H	0.739485	0.957631	0.535684
C563	C	0.655290	0.553138	0.761016
C564	C	0.542998	1.021924	0.519553
C565	C	0.673582	1.031534	0.818652
C566	C	0.502563	1.006845	0.547651
H675	H	0.475636	1.019989	0.822985
C567	C	0.552669	0.816313	0.741622
C568	C	0.686374	0.771725	0.991144
H676	H	0.557894	0.818447	0.691008
H677	H	0.467703	0.792081	0.970326
C569	C	0.574483	0.858089	0.783468
C570	C	0.709539	0.738092	0.540405
H678	H	0.597920	0.888711	0.764923
H679	H	0.506972	0.730941	0.553613
C571	C	0.588162	1.002549	0.798857
C572	C	0.539767	0.617337	0.577623
H680	H	0.553602	0.997998	0.796135
H681	H	0.696721	1.027760	0.600785
C573	C	0.655752	0.977855	0.843326
C574	C	0.478386	0.555612	0.572989
H682	H	0.675434	0.952122	0.875313
H683	H	0.939440	0.547090	0.585974
C575	C	0.534074	0.820128	0.867120
C576	C	0.646464	0.731546	0.600146
H684	H	0.517724	0.829531	0.910398
H685	H	0.629432	0.714006	0.640396
C577	C	0.524814	0.766451	0.833307
C578	C	0.624314	0.771463	0.558262
H686	H	0.723782	0.843403	0.763427
H687	H	0.591462	0.784213	0.568277
C579	C	0.525549	0.770868	0.766872
C580	C	0.643892	0.793269	0.503620
C581	C	0.682830	0.585622	0.708348
C582	C	0.563943	0.985681	0.966312
C583	C	0.502906	0.725054	0.723938
C584	C	0.619462	0.838499	0.960070
Ni31	Ni	0.844707	0.902437	0.915779
Ni32	Ni	0.474912	0.653848	0.666339
O121	O	0.763925	0.700406	0.663020
O122	O	0.892462	0.858314	0.922320
O123	O	0.919172	0.610025	0.669737
O124	O	0.797054	0.946025	0.922228
O125	O	0.462107	0.703437	0.730775
O126	O	0.831477	0.845039	0.972484
O127	O	0.725714	0.601827	0.714239
O128	O	0.856236	0.954088	0.981994
N61	N	0.870181	0.959330	0.856480
N62	N	0.735701	0.605166	0.584143
N63	N	0.820226	0.852657	0.844904
N64	N	0.943620	0.712649	0.606225
C585	C	0.865759	1.018927	0.760245
C586	C	0.750300	1.003930	0.541016
H688	H	0.593308	0.588739	0.521474
C587	C	0.912097	1.033651	0.763431
C588	C	0.788980	1.022537	0.511432
C589	C	0.934601	1.008926	0.815603
C590	C	0.797219	0.586440	0.511073
C591	C	0.819542	0.775083	0.764503
C592	C	0.942896	0.773394	0.509368
C593	C	0.835690	0.797843	0.824641
C594	C	0.472695	0.736540	0.555891
H689	H	0.865308	0.780053	0.844782
H690	H	0.743645	0.735890	0.539687
C595	C	0.846452	0.990868	0.813645
C596	C	0.724938	0.544937	0.578114
H691	H	0.812627	0.995518	0.820863
H692	H	0.555884	0.658804	0.590893
C597	C	0.914202	0.968254	0.858256
C598	C	0.771324	0.625373	0.550882
H693	H	0.933500	0.947991	0.895893
H694	H	0.785903	0.666809	0.565954
C599	C	0.780876	0.870443	0.817927
C600	C	0.901164	0.727283	0.612927
H695	H	0.768891	0.915649	0.824941
H696	H	0.883959	0.709208	0.652449
C601	C	0.755224	0.829763	0.779570
C602	C	0.878214	0.761366	0.566834
C603	C	0.773392	0.776029	0.756648
C604	C	0.898467	0.786457	0.515334
C605	C	0.937855	0.575340	0.715028
C606	C	0.814897	0.975730	0.970804
C607	C	0.746725	0.731908	0.710749
C608	C	0.872917	0.824825	0.965914
C609	C	0.694171	0.575497	0.866698
C610	C	0.677904	0.564375	0.935128
H697	H	0.642339	0.569344	0.935921
H698	H	0.686587	1.018704	0.953310
H699	H	0.692337	0.597592	0.968992
C611	C	0.683619	0.641525	0.850641
H700	H	0.650448	0.647511	0.831723
H701	H	0.685433	0.669320	0.893928
H702	H	0.706850	0.659095	0.816464
C612	C	0.742692	0.566050	0.866903
H703	H	0.749854	1.019458	0.882377
H704	H	0.755964	0.572141	0.819138
H705	H	0.758551	0.599034	0.899289
C613	C	0.493759	0.944227	0.577860
C614	C	0.940881	0.922388	0.556659
H706	H	0.916135	0.957059	0.562538
H707	H	0.931144	0.882035	0.584190
H708	H	0.940092	0.911232	0.505369
C615	C	0.524773	0.894657	0.558718
H709	H	0.516746	0.883326	0.508883
H710	H	0.520449	0.851995	0.585461
H711	H	0.558488	0.909137	0.567376
C616	C	0.496464	0.950499	0.651565
H712	H	0.464510	0.960529	0.671486
H713	H	0.519056	0.987162	0.666689
H714	H	0.508525	0.908889	0.675158
C617	C	0.529919	0.704627	0.867246
C618	C	0.553595	0.712068	0.932197
H715	H	0.537446	0.744654	0.963294
H716	H	0.555558	0.668257	0.957474
H717	H	0.586905	0.728041	0.925036
C619	C	0.558871	0.661023	0.828648
H718	H	0.585168	0.686694	0.805865
H719	H	0.574470	0.625617	0.858903
H720	H	0.540869	0.636796	0.791082
C620	C	0.484709	0.677295	0.878243
H721	H	0.460230	0.713372	0.884899
H722	H	0.473782	0.648596	0.837834
H723	H	0.484234	0.648714	0.921591
C621	C	0.709833	0.791750	0.930750
C622	C	0.750651	0.753383	0.922289
H724	H	0.776883	0.769891	0.952971
H725	H	0.763047	0.754524	0.874321
H726	H	0.744900	0.704974	0.933308
C623	C	0.681935	0.782831	0.868025
H727	H	0.650429	0.760883	0.876225
H728	H	0.697710	0.755293	0.831972
H729	H	0.676521	0.825097	0.840785
C624	C	0.722970	0.859174	0.940934
H730	H	0.702645	0.883661	0.975144
H731	H	0.721706	0.884721	0.896526
H732	H	0.755509	0.864164	0.960651
C625	C	0.837456	1.023173	0.700323
C626	C	0.795067	0.985340	0.704262
H733	H	0.802293	0.938555	0.719841
H734	H	0.778207	0.981825	0.657784
H735	H	0.771593	1.005547	0.736944
C627	C	0.823341	0.589169	0.691808
H736	H	0.848576	0.621755	0.682017
H737	H	0.807448	0.605318	0.735220
H738	H	0.799895	0.591663	0.653250
C628	C	0.860598	0.994528	0.645097
H739	H	0.866331	0.945407	0.653769
H740	H	0.891665	1.014285	0.639422
H741	H	0.842028	0.999520	0.600658
C629	C	0.839338	0.613694	0.982336
C630	C	0.834161	0.679905	0.960902
H742	H	0.821817	0.709770	0.497788
H743	H	0.813517	0.681454	0.917839
H744	H	0.865415	0.699047	0.946004
C631	C	0.874299	0.609913	0.533358
H745	H	0.862835	0.629216	0.578062
H746	H	0.904476	0.632681	0.518801
H747	H	0.880850	0.561489	0.540941
C632	C	0.856590	0.583011	0.922761
H748	H	0.881982	0.610409	0.900252
H749	H	0.830155	0.576249	0.887870
H750	H	0.874980	0.542420	0.934241
C633	C	0.844345	0.798582	0.709865
C634	C	0.888454	0.824791	0.722036
H751	H	0.885921	0.866913	0.750727
H752	H	0.908979	0.791352	0.747170
H753	H	0.903646	0.837617	0.677161
C635	C	0.820323	0.821722	0.652921
H754	H	0.794957	0.853292	0.667190
H755	H	0.841607	0.847714	0.621542
H756	H	0.806580	0.782677	0.627068
C636	C	0.879001	0.668553	0.795722
H757	H	0.521777	0.563699	0.891285
H758	H	0.788112	0.666854	0.817016
H759	H	0.938901	0.816431	0.843224
C637	C	0.720083	0.852668	0.616013
C638	C	0.650361	0.816661	0.709269
H760	H	0.778851	0.820301	0.543993
H761	H	0.477470	0.817119	0.656421
H762	H	0.456357	0.553693	0.945125
C639	C	0.695620	0.943218	0.708965
H763	H	0.469610	0.871373	0.754261
H764	H	0.503525	0.927422	0.820388
H765	H	0.619015	1.030690	0.618555
C640	C	0.644632	0.923904	0.580091
H766	H	0.634947	0.665906	0.983657
H767	H	0.800542	0.913523	0.575198
H768	H	0.587976	0.941278	0.671926
