data_NiPyC2_relax_sc211_meta_functionalized_C-C_pbesol_relax_PM
_symmetry_space_group_name_H-M	'P1'
_cell_length_a	12.505617
_cell_length_b	12.523412
_cell_length_c	10.276810
_cell_angle_alpha	90.000000
_cell_angle_beta	91.268973
_cell_angle_gamma	90.000000
_symmetry_Int_Tables_number 1

loop_
_symmetry_equiv_pos_as_xyz
'x,y,z'

loop_
_atom_site_label
_atom_site_type_symbol
_atom_site_fract_x
_atom_site_fract_y
_atom_site_fract_z
C1	C	0.280506	0.973467	0.530839
C2	C	0.040836	0.040204	0.019259
C3	C	0.384306	0.018875	0.544598
C4	C	0.143076	0.998010	0.038382
C5	C	0.450944	0.977055	0.643074
C6	C	0.208471	0.042534	0.139751
C7	C	0.216586	0.543031	0.526392
C8	C	0.466556	0.484166	0.034942
C9	C	0.248680	0.623204	0.617844
C10	C	0.502016	0.399186	0.113438
C11	C	0.249221	0.892835	0.619683
C12	C	0.004133	0.121461	0.101305
C13	C	0.414921	0.895777	0.725400
C14	C	0.166034	0.127418	0.216733
C15	C	0.077262	0.637718	0.697480
C16	C	0.335388	0.382211	0.208206
C17	C	0.040780	0.554999	0.614552
C18	C	0.293762	0.470119	0.133232
C19	C	0.110332	0.502686	0.530900
C20	C	0.361643	0.520896	0.043039
C21	C	0.423828	0.105719	0.462060
C22	C	0.182311	0.907179	0.961966
C23	C	0.071990	0.407404	0.458983
C24	C	0.321509	0.611316	0.965092
C25	C	0.782728	0.967196	0.529884
C26	C	0.543053	0.037514	0.011280
C27	C	0.883511	0.017945	0.550229
C28	C	0.644637	0.994268	0.032124
C29	C	0.948552	0.978180	0.651416
C30	C	0.709886	0.039197	0.133401
C31	C	0.710456	0.526408	0.529517
C32	C	0.952561	0.457391	0.016116
C33	C	0.745151	0.611274	0.608245
C34	C	0.987700	0.376382	0.104919
C35	C	0.753211	0.882218	0.613951
C36	C	0.506829	0.120288	0.091418
C37	C	0.913495	0.894345	0.730582
C38	C	0.668128	0.125583	0.208513
C39	C	0.591323	0.603889	0.732079
C40	C	0.836234	0.395090	0.229522
C41	C	0.551514	0.515254	0.658597
C42	C	0.797126	0.476773	0.148326
C43	C	0.612707	0.477387	0.552672
C44	C	0.855226	0.510916	0.041658
C45	C	0.920892	0.108263	0.471132
C46	C	0.683434	0.902182	0.957492
C47	C	0.572639	0.389870	0.469988
C48	C	0.816342	0.601428	0.963028
C49	C	0.199518	-0.008089	0.440392
C50	C	0.114692	-0.011032	0.377509
C51	C	0.304542	0.993541	0.174523
C52	C	0.383097	0.938281	0.201406
C53	C	0.297668	0.521502	0.440925
C54	C	0.380406	0.525299	0.378524
C55	C	0.194094	0.510400	0.164235
C56	C	0.108887	0.544575	0.204506
C57	C	0.703105	-0.013089	0.438080
C58	C	0.618956	-0.012930	0.373561
C59	C	0.805419	0.989849	0.169704
C60	C	0.884525	0.935915	0.198328
C61	C	0.458887	0.464325	0.697708
C62	C	0.380513	0.416871	0.738314
C63	C	0.023987	0.474810	0.917176
C64	C	0.101677	0.474890	0.845691
H1	H	0.489360	0.006145	0.936043
H2	H	0.026696	1.012934	0.671436
H3	H	0.331196	0.650234	0.621145
H4	H	0.063157	0.336218	0.089685
H5	H	0.169142	0.859561	0.612702
H6	H	0.427177	0.153739	0.078722
H7	H	0.466133	0.862845	0.802121
H8	H	0.215817	0.164509	0.291940
H9	H	0.024210	0.676929	0.764492
H10	H	0.284892	0.342083	0.277607
H11	H	0.986947	0.009139	0.944012
H12	H	0.531431	1.007774	0.657796
H13	H	0.761230	0.498714	0.451990
H14	H	0.522796	0.521974	0.970565
H15	H	0.821470	0.650602	0.594124
H16	H	0.583851	0.370308	0.111133
H17	H	0.675698	0.843933	0.601283
H18	H	0.924175	0.154324	0.089794
H19	H	0.962966	0.864554	0.810791
H20	H	0.717598	0.162543	0.284156
H21	H	0.545297	0.636336	0.811478
H22	H	0.792004	0.367536	0.312763
H23	H	0.958091	0.529494	0.620763
H24	H	0.721574	0.514611	0.170703
H25	H	0.041192	-0.013866	0.321548
H26	H	0.446302	0.880987	0.215784
H27	H	0.451036	0.531770	0.321299
H28	H	0.034620	0.577466	0.236787
H29	H	0.547257	-0.015852	0.314314
H30	H	0.948961	0.880056	0.213199
H31	H	0.314853	0.368277	0.769041
H32	H	0.174037	0.472154	0.791393
N1	N	0.314697	0.855845	0.713084
N2	N	0.065019	0.162371	0.199836
N3	N	0.181597	0.667568	0.701062
N4	N	0.437127	0.349319	0.198136
N5	N	0.816584	0.848064	0.711145
N6	N	0.567570	0.161508	0.189845
N7	N	0.685963	0.648948	0.707133
N8	N	0.931361	0.347399	0.208012
Ni1	Ni	0.249372	0.757366	0.836973
Ni2	Ni	0.500619	0.249088	0.331438
Ni3	Ni	0.749942	0.750537	0.836126
Ni4	Ni	0.998553	0.252160	0.340324
O1	O	0.129411	0.350455	0.383654
O2	O	0.377682	0.661701	0.881640
O3	O	0.368906	0.154788	0.374071
O4	O	0.124814	0.858023	0.875667
O5	O	0.476851	0.353105	0.478485
O6	O	0.224916	0.645837	0.973877
O7	O	0.016776	0.146344	0.486001
O8	O	0.277612	0.869752	0.975823
O9	O	0.627474	0.346091	0.380161
O10	O	0.872254	0.647190	0.875581
O11	O	0.866109	0.154599	0.380977
O12	O	0.626170	0.852256	0.871565
O13	O	0.975357	0.373830	0.469975
O14	O	0.722853	0.641834	0.978070
O15	O	0.521963	0.138337	0.472385
O16	O	0.778466	0.864308	0.972707
