data_NiPyC2_relax_sc211_ortho_functionalized_Cl_pbesol_relax_PM
_symmetry_space_group_name_H-M	'P1'
_cell_length_a	12.505617
_cell_length_b	12.523412
_cell_length_c	10.276810
_cell_angle_alpha	90.000000
_cell_angle_beta	91.268973
_cell_angle_gamma	90.000000
_symmetry_Int_Tables_number 1

loop_
_symmetry_equiv_pos_as_xyz
'x,y,z'

loop_
_atom_site_label
_atom_site_type_symbol
_atom_site_fract_x
_atom_site_fract_y
_atom_site_fract_z
C1	C	0.326858	0.985980	0.566810
C2	C	0.047039	0.042316	0.008760
C3	C	0.431722	0.011787	0.603398
C4	C	0.145186	0.991938	0.034764
C5	C	0.484517	0.952972	0.700407
C6	C	0.205919	0.026491	0.142005
C7	C	0.138428	0.560110	0.490914
C8	C	0.422551	0.439897	-0.008988
C9	C	0.193953	0.634183	0.570123
C10	C	0.461242	0.362083	0.077261
C11	C	0.275838	0.903274	0.632064
C12	C	0.006628	0.114175	0.099933
C13	C	0.427555	0.870358	0.760458
C14	C	0.163667	0.107069	0.221306
C15	C	0.076176	0.606252	0.737261
C16	C	0.346556	0.418103	0.238019
C17	C	0.024766	0.522493	0.669736
C18	C	0.301870	0.497254	0.156745
C19	C	0.059696	0.496761	0.545610
C20	C	0.340703	0.507076	0.031407
C21	C	0.487849	0.104971	0.543618
C22	C	0.186774	0.902509	0.957090
C23	C	0.023245	0.402630	0.471454
C24	C	0.297393	0.590520	0.946162
C25	C	0.797560	0.962046	0.512780
C26	C	0.573903	0.026005	0.032713
C27	C	0.895906	0.006884	0.551410
C28	C	0.670272	0.988961	0.087472
C29	C	0.946281	0.972010	0.666867
C30	C	0.716072	0.039454	0.195689
C31	C	0.706778	0.546676	0.488337
C32	C	0.949590	0.463987	0.017388
C33	C	0.746994	0.622753	0.576525
C34	C	0.991420	0.384316	0.100403
C35	C	0.749932	0.884730	0.590237
C36	C	0.520980	0.109930	0.093817
C37	C	0.892713	0.893694	0.737817
C38	C	0.657131	0.121775	0.250694
C39	C	0.598620	0.604191	0.708144
C40	C	0.832376	0.373936	0.210847
C41	C	0.553834	0.526941	0.625829
C42	C	0.784626	0.453106	0.132068
C43	C	0.610426	0.497803	0.516177
C44	C	0.845180	0.499172	0.034495
C45	C	0.942426	0.092039	0.471696
C46	C	0.725483	0.892807	1.036154
C47	C	0.572489	0.410934	0.433938
C48	C	0.805253	0.586414	0.951270
Cl1	Cl	0.484662	0.800765	0.882895
Cl2	Cl	0.242024	0.162667	0.335970
Cl3	Cl	0.307210	0.684739	0.510589
Cl4	Cl	0.306623	0.408227	0.391644
Cl5	Cl	0.935990	0.840723	0.880425
Cl6	Cl	0.691616	0.181734	0.392531
Cl7	Cl	0.867184	0.674557	0.543585
Cl8	Cl	0.118580	0.347268	0.076718
H1	H	0.283532	1.029232	0.491194
H2	H	0.538727	-0.009635	0.945964
H3	H	0.022979	1.002760	0.701674
H4	H	0.284865	0.994297	0.164532
H5	H	0.161828	0.550233	0.390830
H6	H	0.000777	0.497311	0.943796
H7	H	0.193171	0.881676	0.610497
H8	H	0.444250	0.140367	0.057982
H9	H	0.049119	0.630964	0.832101
H10	H	0.477912	0.490613	0.648718
H11	H	0.240041	0.549796	0.192415
H12	H	0.756991	0.985227	0.423403
H13	H	0.999563	0.026439	0.921604
H14	H	0.566362	0.969865	0.731640
H15	H	0.793068	1.016170	0.237158
H16	H	0.752526	0.525526	0.403532
H17	H	0.456703	0.447162	0.895285
H18	H	0.526354	0.309542	0.051016
H19	H	0.673988	0.847237	0.563886
H20	H	0.927256	0.148760	0.087954
H21	H	0.559090	0.627919	0.796484
H22	H	0.788467	0.338286	0.289672
H23	H	0.959641	0.480801	0.715620
H24	H	0.703091	0.476779	0.150855
N1	N	0.325030	0.846307	0.727024
N2	N	0.062954	0.145826	0.206151
N3	N	0.161996	0.658610	0.692213
N4	N	0.422810	0.348839	0.197951
N5	N	0.797826	0.850895	0.700570
N6	N	0.561996	0.156388	0.201607
N7	N	0.693139	0.651424	0.685103
N8	N	0.933409	0.339450	0.196924
Ni1	Ni	0.242470	0.743897	0.827731
Ni2	Ni	0.499927	0.255494	0.324720
Ni3	Ni	0.750874	0.742346	0.827389
Ni4	Ni	0.995053	0.244131	0.339334
O1	O	0.086949	0.363505	0.385602
O2	O	0.345713	0.621048	0.843306
O3	O	0.453161	0.134590	0.429263
O4	O	0.139763	0.866986	0.852293
O5	O	0.500287	0.346394	0.475917
O6	O	0.210772	0.641169	0.970434
O7	O	0.029001	0.141437	0.498477
O8	O	0.271228	0.852158	0.990424
O9	O	0.609048	0.390869	0.322323
O10	O	0.861691	0.622030	0.857817
O11	O	0.894136	0.124957	0.365855
O12	O	0.695911	0.862334	0.919911
O13	O	0.936123	0.352378	0.483999
O14	O	0.715939	0.635069	0.965717
O15	O	0.562998	0.147262	0.605796
O16	O	0.795343	0.846808	1.103262
