data_NiPyC2_relax_sc211_meta_functionalized_C-N_pbesol_relax_PM
_symmetry_space_group_name_H-M	'P1'
_cell_length_a	12.505617
_cell_length_b	12.523412
_cell_length_c	10.276810
_cell_angle_alpha	90.000000
_cell_angle_beta	91.268973
_cell_angle_gamma	90.000000
_symmetry_Int_Tables_number 1

loop_
_symmetry_equiv_pos_as_xyz
'x,y,z'

loop_
_atom_site_label
_atom_site_type_symbol
_atom_site_fract_x
_atom_site_fract_y
_atom_site_fract_z
C1	C	0.288108	0.969300	0.522565
C2	C	0.037732	0.027939	0.021800
C3	C	0.388360	0.014427	0.546453
C4	C	0.138113	0.982773	0.044674
C5	C	0.450413	0.974055	0.652442
C6	C	0.200291	0.022303	0.151083
C7	C	0.208123	0.530687	0.523844
C8	C	0.464252	0.475427	0.036450
C9	C	0.242011	0.615442	0.607129
C10	C	0.500279	0.387996	0.113217
C11	C	0.251920	0.886141	0.602359
C12	C	0.001351	0.109978	0.103316
C13	C	0.408076	0.890399	0.729428
C14	C	0.157987	0.105070	0.229567
C15	C	0.085714	0.602613	0.734991
C16	C	0.340542	0.388046	0.225918
C17	C	0.044494	0.517678	0.641322
C18	C	0.300149	0.474386	0.152833
C19	C	0.109399	0.481888	0.541584
C20	C	0.362046	0.520873	0.057129
C21	C	0.429905	0.101380	0.466119
C22	C	0.180058	0.896321	0.963386
C23	C	0.071272	0.392103	0.461322
C24	C	0.323383	0.611422	0.978018
C25	C	0.788108	0.969300	0.522566
C26	C	0.537733	0.027941	0.021800
C27	C	0.888361	0.014428	0.546454
C28	C	0.638114	0.982772	0.044674
C29	C	0.950416	0.974055	0.652442
C30	C	0.700290	0.022301	0.151084
C31	C	0.708125	0.530687	0.523843
C32	C	0.964250	0.475426	0.036453
C33	C	0.742008	0.615441	0.607135
C34	C	1.000282	0.387998	0.113223
C35	C	0.751919	0.886141	0.602359
C36	C	0.501353	0.109981	0.103315
C37	C	0.908077	0.890400	0.729428
C38	C	0.657987	0.105070	0.229567
C39	C	0.585716	0.602606	0.734988
C40	C	0.840542	0.388048	0.225922
C41	C	0.544493	0.517676	0.641314
C42	C	0.800146	0.474387	0.152834
C43	C	0.609394	0.481885	0.541580
C44	C	0.862043	0.520870	0.057128
C45	C	0.929905	0.101380	0.466119
C46	C	0.680058	0.896320	0.963386
C47	C	0.571270	0.392104	0.461317
C48	C	0.823382	0.611423	0.978017
C49	C	0.551459	0.014303	0.688474
C50	C	0.301317	0.981539	0.186287
C51	C	0.944633	0.475904	0.669417
C52	C	0.528151	0.517516	0.940378
C53	C	0.051450	0.014299	0.688469
C54	C	0.801317	0.981539	0.186277
C55	C	0.444632	0.475911	0.669410
C56	C	0.028156	0.517510	0.940392
H1	H	0.236337	0.997512	0.443956
H2	H	0.485945	0.000848	0.942656
H3	H	0.260661	0.504328	0.447584
H4	H	0.317663	0.655178	0.589736
H5	H	0.078944	0.352934	0.099876
H6	H	0.174737	0.848588	0.584985
H7	H	0.424064	0.147524	0.086718
H8	H	0.454162	0.859042	0.811906
H9	H	0.204557	0.136362	0.311656
H10	H	0.026259	0.668012	0.740855
H11	H	0.294129	0.351747	0.302240
H12	H	0.221095	0.505109	0.173479
H13	H	0.736338	0.997512	0.443957
H14	H	0.985946	0.000847	0.942653
H15	H	0.760659	0.504329	0.447591
H16	H	0.817662	0.655181	0.589738
H17	H	0.578941	0.352928	0.099876
H18	H	0.674736	0.848589	0.584983
H19	H	0.924065	0.147527	0.086714
H20	H	0.954161	0.859042	0.811906
H21	H	0.704556	0.136362	0.311657
H22	H	0.526264	0.668006	0.740865
H23	H	0.794129	0.351743	0.302242
H24	H	0.721091	0.505114	0.173477
N1	N	0.311296	0.848450	0.703925
N2	N	0.060784	0.146428	0.205519
N3	N	0.188987	0.648659	0.708520
N4	N	0.439255	0.347190	0.206534
N5	N	0.811296	0.848451	0.703924
N6	N	0.560784	0.146428	0.205520
N7	N	0.688988	0.648655	0.708520
N8	N	0.939254	0.347189	0.206535
N9	N	0.636435	0.042090	0.726113
N10	N	0.386013	0.952314	0.223241
N11	N	0.860994	0.449021	0.708484
N12	N	0.584542	0.555837	0.864063
N13	N	0.136442	0.042093	0.726116
N14	N	0.886013	0.952316	0.223248
N15	N	0.360993	0.449016	0.708483
N16	N	0.084536	0.555838	0.864057
Ni1	Ni	0.250556	0.750217	0.836393
Ni2	Ni	0.500521	0.244700	0.338261
Ni3	Ni	0.750558	0.750217	0.836394
Ni4	Ni	1.000519	0.244699	0.338262
O1	O	0.126999	0.344998	0.375209
O2	O	0.377873	0.654223	0.886981
O3	O	0.372970	0.153447	0.381745
O4	O	0.122482	0.841777	0.881994
O5	O	0.476499	0.354537	0.474516
O6	O	0.230887	0.653103	0.993212
O7	O	0.027600	0.132467	0.475327
O8	O	0.278444	0.868004	0.970061
O9	O	0.627000	0.345000	0.375209
O10	O	0.877874	0.654226	0.886984
O11	O	0.872971	0.153447	0.381744
O12	O	0.622483	0.841779	0.881993
O13	O	0.976503	0.354538	0.474517
O14	O	0.730889	0.653107	0.993216
O15	O	0.527599	0.132467	0.475329
O16	O	0.778444	0.868002	0.970061
