data_NiPyC2_relax_sc211_meta_functionalized_N-C-O_pbesol_relax_PM
_symmetry_space_group_name_H-M	'P1'
_cell_length_a	12.505617
_cell_length_b	12.523412
_cell_length_c	10.276810
_cell_angle_alpha	90.000000
_cell_angle_beta	91.268973
_cell_angle_gamma	90.000000
_symmetry_Int_Tables_number 1

loop_
_symmetry_equiv_pos_as_xyz
'x,y,z'

loop_
_atom_site_label
_atom_site_type_symbol
_atom_site_fract_x
_atom_site_fract_y
_atom_site_fract_z
C1	C	0.282220	0.966238	0.531511
C2	C	0.033995	0.047509	0.032429
C3	C	0.388238	0.006710	0.542935
C4	C	0.137886	1.002564	0.049353
C5	C	0.455361	0.956856	0.634416
C6	C	0.203979	0.050161	0.143731
C7	C	0.209089	0.552376	0.528375
C8	C	0.465849	0.471074	0.038726
C9	C	0.243125	0.633638	0.617150
C10	C	0.499716	0.388472	0.125356
C11	C	0.246400	0.892205	0.626366
C12	C	-0.001519	0.124383	0.124430
C13	C	0.416911	0.876822	0.717142
C14	C	0.165925	0.131878	0.224395
C15	C	0.084940	0.623946	0.730077
C16	C	0.332782	0.380118	0.218282
C17	C	0.045655	0.544603	0.645387
C18	C	0.295517	0.465053	0.140118
C19	C	0.108438	0.502954	0.547217
C20	C	0.361981	0.515142	0.051520
C21	C	0.429555	0.095638	0.464525
C22	C	0.177438	0.910663	0.974148
C23	C	0.069891	0.408921	0.474205
C24	C	0.322144	0.607675	0.975810
C25	C	0.786553	0.962728	0.523384
C26	C	0.535872	0.039137	0.019366
C27	C	0.888818	0.010131	0.543987
C28	C	0.640458	0.995429	0.033374
C29	C	0.954933	0.963359	0.639019
C30	C	0.707222	0.043499	0.126949
C31	C	0.721351	0.512515	0.548617
C32	C	0.949631	0.456316	0.027713
C33	C	0.757063	0.597486	0.626537
C34	C	0.987537	0.379270	0.119495
C35	C	0.753260	0.880930	0.609975
C36	C	0.501347	0.115975	0.111763
C37	C	0.918819	0.878755	0.716113
C38	C	0.670167	0.125306	0.208124
C39	C	0.588581	0.621283	0.714451
C40	C	0.841761	0.407913	0.250441
C41	C	0.548252	0.533110	0.640793
C42	C	0.805805	0.492479	0.171366
C43	C	0.615357	0.478882	0.553027
C44	C	0.860791	0.520858	0.059783
C45	C	0.927680	0.103742	0.472092
C46	C	0.681155	0.904766	0.956499
C47	C	0.573050	0.389497	0.474213
C48	C	0.822083	0.608988	0.976488
C49	C	0.128161	0.952440	0.395365
C50	C	0.882548	0.061403	0.890780
C51	C	0.363492	0.559442	0.400031
C52	C	0.619198	0.459055	0.911812
C53	C	0.633265	0.950039	0.386701
C54	C	0.380064	0.054202	0.887627
C55	C	0.382980	0.461849	0.731558
C56	C	0.052730	0.391044	0.857889
H1	H	0.034512	0.994870	0.658624
H2	H	0.285330	1.022256	0.160240
H3	H	0.321456	0.670007	0.606428
H4	H	0.061631	0.336484	0.101606
H5	H	0.162849	0.867432	0.625306
H6	H	0.418802	0.144016	0.107650
H7	H	0.468707	0.838157	0.788668
H8	H	0.216949	0.167925	0.298661
H9	H	0.038715	0.651939	0.811288
H10	H	0.282397	0.343430	0.290172
H11	H	0.214320	0.493125	0.152800
H12	H	0.538213	0.981495	0.646464
H13	H	0.788950	1.015885	0.141305
H14	H	0.778926	0.472184	0.488497
H15	H	0.839340	0.624899	0.626162
H16	H	0.581466	0.358486	0.121483
H17	H	0.672391	0.848724	0.600912
H18	H	0.916355	0.153455	0.118353
H19	H	0.968814	0.844225	0.792626
H20	H	0.721735	0.162489	0.281159
H21	H	0.537056	0.662545	0.781924
H22	H	0.797183	0.380326	0.333274
H23	H	0.967077	0.511598	0.662582
H24	H	0.733491	0.534718	0.197380
N1	N	0.311959	0.850767	0.717071
N2	N	0.062414	0.163204	0.218614
N3	N	0.184044	0.665104	0.716540
N4	N	0.435176	0.345454	0.212384
N5	N	0.817223	0.842271	0.703899
N6	N	0.566211	0.155807	0.204040
N7	N	0.691393	0.649601	0.708311
N8	N	0.934175	0.355661	0.226361
N9	N	0.214414	-0.007936	0.432490
N10	N	0.968164	1.022584	0.931196
N11	N	0.274126	0.525790	0.430293
N12	N	0.533390	0.500347	0.943881
N13	N	0.719537	-0.010215	0.424022
N14	N	0.467301	1.014010	0.920771
N15	N	0.446563	0.501146	0.656869
N16	N	-0.004259	0.459743	0.909911
Ni1	Ni	0.249311	0.758625	0.852952
Ni2	Ni	0.500791	0.244855	0.340500
Ni3	Ni	0.753509	0.750768	0.837595
Ni4	Ni	0.999600	0.255806	0.355746
O1	O	0.124285	0.358111	0.389647
O2	O	0.377121	0.659421	0.892342
O3	O	0.375728	0.145720	0.375691
O4	O	0.122743	0.859855	0.886988
O5	O	0.477274	0.353994	0.484543
O6	O	0.226576	0.643577	0.988856
O7	O	0.022982	0.140429	0.491665
O8	O	0.272556	0.873452	0.992795
O9	O	0.628003	0.341378	0.387488
O10	O	0.877151	0.652446	0.886648
O11	O	0.872868	0.156170	0.386502
O12	O	0.626838	0.852660	0.870074
O13	O	0.976237	0.369657	0.492736
O14	O	0.727993	0.648651	0.987986
O15	O	0.525457	0.130730	0.481506
O16	O	0.777354	0.870383	0.973332
O17	O	0.049254	0.922120	0.345210
O18	O	0.804285	0.090832	0.838269
O19	O	0.445764	0.583529	0.357421
O20	O	0.697825	0.426487	0.867329
O21	O	0.553751	0.920094	0.337854
O22	O	0.299794	0.084869	0.841595
O23	O	0.315108	0.422664	0.791725
O24	O	0.102233	0.332258	0.795619
