data_NiPyC2_relax_sc211_ortho_functionalized_N-C-O_pbesol_relax_PM
_symmetry_space_group_name_H-M	'P1'
_cell_length_a	12.505617
_cell_length_b	12.523412
_cell_length_c	10.276810
_cell_angle_alpha	90.000000
_cell_angle_beta	91.268973
_cell_angle_gamma	90.000000
_symmetry_Int_Tables_number 1

loop_
_symmetry_equiv_pos_as_xyz
'x,y,z'

loop_
_atom_site_label
_atom_site_type_symbol
_atom_site_fract_x
_atom_site_fract_y
_atom_site_fract_z
C1	C	0.302251	0.955288	0.530494
C2	C	0.058016	0.022371	0.061624
C3	C	0.399229	0.003028	0.567986
C4	C	0.153777	0.979398	0.110573
C5	C	0.447320	0.972263	0.685815
C6	C	0.199312	0.022681	0.222853
C7	C	0.180333	0.529069	0.514933
C8	C	0.456511	0.467574	0.026400
C9	C	0.227359	0.606120	0.597976
C10	C	0.498973	0.386227	0.108256
C11	C	0.257284	0.876672	0.609114
C12	C	0.008507	0.103802	0.132649
C13	C	0.396012	0.893692	0.762187
C14	C	0.146057	0.106066	0.288303
C15	C	0.081193	0.598725	0.735279
C16	C	0.359276	0.406525	0.251584
C17	C	0.030027	0.521773	0.657489
C18	C	0.311179	0.486028	0.173545
C19	C	0.080935	0.487952	0.545277
C20	C	0.360742	0.516185	0.058575
C21	C	0.449089	0.085906	0.485431
C22	C	0.211277	0.887207	1.050340
C23	C	0.034001	0.405836	0.461120
C24	C	0.313786	0.597468	0.971194
C25	C	0.772055	0.981499	0.544284
C26	C	0.567156	0.040096	0.011729
C27	C	0.873450	0.026447	0.563698
C28	C	0.662546	0.991674	0.049620
C29	C	0.942915	0.983082	0.657273
C30	C	0.712683	0.023902	0.166018
C31	C	0.704976	0.516494	0.532931
C32	C	0.928874	0.466234	0.017867
C33	C	0.738748	0.607787	0.603785
C34	C	0.966262	0.379818	0.094389
C35	C	0.742849	0.895091	0.622242
C36	C	0.516501	0.110543	0.097192
C37	C	0.908024	0.895801	0.732769
C38	C	0.661324	0.100929	0.242123
C39	C	0.587723	0.601621	0.731290
C40	C	0.817701	0.391520	0.226544
C41	C	0.547181	0.512800	0.662575
C42	C	0.776203	0.478316	0.155066
C43	C	0.607741	0.469526	0.562644
C44	C	0.833529	0.515159	0.049000
C45	C	0.909311	0.117056	0.485280
C46	C	0.702309	0.903978	0.969462
C47	C	0.569583	0.377784	0.485251
C48	C	0.795870	0.602785	0.966428
C49	C	0.462236	0.811464	0.971366
C50	C	0.199245	0.205377	0.489003
C51	C	0.402510	0.694882	0.544742
C52	C	0.647085	0.333591	-0.018485
C53	C	0.979923	0.803125	0.924275
C54	C	0.340594	0.191629	0.101238
C55	C	0.907578	0.703916	0.537627
C56	C	0.120567	0.347637	-0.024240
H1	H	0.260494	0.976435	0.441390
H2	H	0.526081	0.021880	0.920794
H3	H	0.023059	1.014030	0.675208
H4	H	0.277225	0.997407	0.259615
H5	H	0.223650	0.503503	0.430153
H6	H	-0.024068	0.492467	0.936099
H7	H	0.182657	0.837133	0.581319
H8	H	0.044987	0.626990	0.824090
H9	H	0.322829	0.379955	0.340966
H10	H	0.470380	0.479681	0.688620
H11	H	0.236535	0.521855	0.203091
H12	H	0.714568	1.012454	0.473554
H13	H	1.020641	-0.004563	0.971442
H14	H	0.522687	1.005866	0.720872
H15	H	0.788702	0.991331	0.199918
H16	H	0.756586	0.485792	0.458039
H17	H	0.499716	0.489180	0.939534
H18	H	0.664344	0.858219	0.612185
H19	H	0.932072	0.137307	0.100499
H20	H	0.699470	0.130816	0.330795
H21	H	0.543547	0.635810	0.811208
H22	H	0.774813	0.359419	0.308648
H23	H	0.953352	0.489968	0.685855
H24	H	0.701356	0.514561	0.183065
N1	N	0.303416	0.844146	0.721136
N2	N	0.049679	0.145160	0.243272
N3	N	0.176481	0.641516	0.707182
N4	N	0.449970	0.355875	0.220342
N5	N	0.807965	0.852792	0.714509
N6	N	0.564963	0.141872	0.212164
N7	N	0.680901	0.648932	0.704489
N8	N	0.910786	0.344003	0.199173
N9	N	0.434672	0.868972	0.880654
N10	N	0.193486	0.145880	0.394906
N11	N	0.324703	0.642461	0.570382
N12	N	0.589712	0.333552	0.077941
N13	N	0.976653	0.854962	0.822122
N14	N	0.418407	0.143963	0.060219
N15	N	0.830551	0.654726	0.572679
N16	N	0.058257	0.329366	0.065425
Ni1	Ni	0.239043	0.737897	0.836401
Ni2	Ni	0.505384	0.239018	0.340931
Ni3	Ni	0.744770	0.750414	0.836141
Ni4	Ni	0.973449	0.255159	0.340731
O1	O	0.089199	0.360121	0.371948
O2	O	0.365339	0.637693	0.875649
O3	O	0.397969	0.127397	0.386188
O4	O	0.186360	0.860510	0.931483
O5	O	0.475049	0.339328	0.492276
O6	O	0.218911	0.634548	0.983238
O7	O	-0.001620	0.163979	0.507896
O8	O	0.281262	0.839836	1.115985
O9	O	0.628177	0.331842	0.400048
O10	O	0.852912	0.638254	0.872239
O11	O	0.856149	0.154002	0.386327
O12	O	0.644838	0.866799	0.873228
O13	O	0.938365	0.371632	0.471698
O14	O	0.705888	0.649405	0.979538
O15	O	0.542385	0.122070	0.505597
O16	O	0.790593	0.856147	0.989477
O17	O	0.495618	0.765797	1.062111
O18	O	0.217239	0.254889	0.582814
O19	O	0.480209	0.742307	0.519263
O20	O	0.708362	0.322749	-0.101499
O21	O	0.999213	0.758544	1.021092
O22	O	0.259858	0.233811	0.123861
O23	O	0.983439	0.751804	0.505748
O24	O	0.184966	0.355708	-0.103605
