data_NiPyC2_relax_sc211_ortho_functionalized_C-C_vdw-df2_relax_PM
_symmetry_space_group_name_H-M	'P1'
_cell_length_a	12.505617
_cell_length_b	12.523412
_cell_length_c	10.276810
_cell_angle_alpha	90.000000
_cell_angle_beta	91.268973
_cell_angle_gamma	90.000000
_symmetry_Int_Tables_number 1

loop_
_symmetry_equiv_pos_as_xyz
'x,y,z'

loop_
_atom_site_label
_atom_site_type_symbol
_atom_site_fract_x
_atom_site_fract_y
_atom_site_fract_z
C1	C	0.284530	0.983328	0.530476
C2	C	0.041764	0.016641	0.033873
C3	C	0.383389	0.027232	0.565370
C4	C	0.142240	0.976745	0.068229
C5	C	0.439911	0.987734	0.674155
C6	C	0.200275	0.022265	0.172114
C7	C	0.197330	0.516518	0.538881
C8	C	0.431907	0.462551	0.029746
C9	C	0.239208	0.602330	0.612624
C10	C	0.482036	0.384731	0.108276
C11	C	0.245559	0.895636	0.601779
C12	C	0.001489	0.105654	0.100988
C13	C	0.396492	0.901903	0.742646
C14	C	0.155816	0.109919	0.236436
C15	C	0.081461	0.610728	0.732787
C16	C	0.341903	0.394900	0.256700
C17	C	0.034914	0.527142	0.660505
C18	C	0.294930	0.481037	0.189834
C19	C	0.094705	0.479745	0.562500
C20	C	0.342175	0.515906	0.074579
C21	C	0.431171	0.108065	0.481349
C22	C	0.186079	0.892846	0.986080
C23	C	0.052724	0.392969	0.480327
C24	C	0.296147	0.601271	0.997109
C25	C	0.794623	0.981855	0.531268
C26	C	0.547556	0.020924	0.032143
C27	C	0.895952	0.021142	0.562077
C28	C	0.648542	0.981835	0.064650
C29	C	0.953992	0.978168	0.667604
C30	C	0.704978	0.023983	0.171927
C31	C	0.724648	0.518442	0.537531
C32	C	0.956725	0.488399	0.037956
C33	C	0.757291	0.607298	0.611156
C34	C	0.994589	0.397565	0.106047
C35	C	0.753060	0.896551	0.604308
C36	C	0.504008	0.104731	0.105702
C37	C	0.908794	0.893162	0.736805
C38	C	0.658116	0.107655	0.241280
C39	C	0.600405	0.600688	0.734358
C40	C	0.841956	0.397123	0.235546
C41	C	0.564863	0.508436	0.666319
C42	C	0.800225	0.487414	0.171164
C43	C	0.626214	0.470588	0.564218
C44	C	0.858357	0.531700	0.069621
C45	C	0.939551	0.103932	0.477609
C46	C	0.693622	0.900655	0.979181
C47	C	0.581420	0.385422	0.481263
C48	C	0.815451	0.617870	0.987843
C49	C	0.150568	0.847274	0.558358
C50	C	0.068828	0.812485	0.508205
C51	C	0.904227	0.146024	0.052906
C52	C	0.823891	0.158296	-0.014412
C53	C	0.339462	0.639719	0.576161
C54	C	0.422447	0.651925	0.518463
C55	C	0.582534	0.351588	0.067138
C56	C	0.666060	0.347271	0.008970
C57	C	0.651692	0.860498	0.565003
C58	C	0.566278	0.851653	0.507025
C59	C	0.404507	0.141710	0.060552
C60	C	0.323266	0.149825	-0.006116
C61	C	0.541931	0.646666	0.830941
C62	C	0.471658	0.665728	0.920947
C63	C	0.091576	0.356417	0.064174
C64	C	0.173462	0.343296	0.004610
H1	H	0.237637	1.012788	0.449677
H2	H	0.501638	-0.009981	0.951541
H3	H	0.031759	1.007371	0.695964
H4	H	0.277536	0.993215	0.202489
H5	H	0.245890	0.481824	0.465640
H6	H	0.004678	0.521467	0.962687
H7	H	0.438529	0.867620	0.824659
H8	H	0.198133	0.149699	0.314366
H9	H	0.038997	0.649812	0.808989
H10	H	0.306134	0.360690	0.341019
H11	H	0.489606	0.472720	0.689616
H12	H	0.223086	0.516609	0.225305
H13	H	0.746597	1.014466	0.453451
H14	H	0.994091	-0.017523	0.956780
H15	H	0.515930	1.019950	0.704387
H16	H	0.782864	0.995637	0.200841
H17	H	0.775277	0.488514	0.463028
H18	H	0.466691	0.478676	0.937835
H19	H	0.832507	0.646891	0.595783
H20	H	0.950978	0.855890	0.816590
H21	H	0.699542	0.145324	0.321398
H22	H	0.798957	0.358580	0.311439
H23	H	0.955619	0.500693	0.682195
H24	H	0.724342	0.519178	0.198905
H25	H	0.997315	0.779967	0.467191
H26	H	0.751836	0.168706	-0.069129
H27	H	0.496769	0.663358	0.473143
H28	H	0.740906	0.343683	-0.036910
H29	H	0.490638	0.843380	0.459771
H30	H	0.250686	0.157307	-0.060416
H31	H	0.490111	0.695195	1.017978
H32	H	0.247667	0.332759	-0.041119
N1	N	0.302367	0.856499	0.708753
N2	N	0.058851	0.149592	0.203652
N3	N	0.181059	0.646854	0.711017
N4	N	0.434681	0.350176	0.219844
N5	N	0.811385	0.853204	0.706700
N6	N	0.560261	0.146444	0.210586
N7	N	0.696862	0.648315	0.705127
N8	N	0.936359	0.353363	0.204861
Ni1	Ni	0.240675	0.753516	0.835752
Ni2	Ni	0.503132	0.246972	0.340189
Ni3	Ni	0.747791	0.753564	0.836137
Ni4	Ni	0.996823	0.247618	0.332827
O1	O	0.111197	0.352548	0.389269
O2	O	0.363601	0.641233	0.892128
O3	O	0.376263	0.153668	0.388406
O4	O	0.126605	0.852194	0.892727
O5	O	0.484259	0.354009	0.493627
O6	O	0.206971	0.640327	0.996802
O7	O	0.036261	0.135891	0.485719
O8	O	0.282086	0.858496	0.996031
O9	O	0.634126	0.340967	0.389092
O10	O	0.872045	0.659539	0.896685
O11	O	0.879896	0.147085	0.386443
O12	O	0.634125	0.859620	0.885881
O13	O	0.958962	0.354361	0.491111
O14	O	0.719526	0.652596	0.997488
O15	O	0.529833	0.134645	0.492360
O16	O	0.789665	0.867543	0.989035
