data_NiPyC2_relax_sc211_ortho_functionalized_C-C_pbesol_relax_PM
_symmetry_space_group_name_H-M	'P1'
_cell_length_a	12.505617
_cell_length_b	12.523412
_cell_length_c	10.276810
_cell_angle_alpha	90.000000
_cell_angle_beta	91.268973
_cell_angle_gamma	90.000000
_symmetry_Int_Tables_number 1

loop_
_symmetry_equiv_pos_as_xyz
'x,y,z'

loop_
_atom_site_label
_atom_site_type_symbol
_atom_site_fract_x
_atom_site_fract_y
_atom_site_fract_z
C1	C	0.285222	0.980644	0.526726
C2	C	0.039004	0.020985	0.033473
C3	C	0.384595	0.024192	0.559541
C4	C	0.139127	0.978586	0.064044
C5	C	0.441131	0.983527	0.668041
C6	C	0.198417	0.023275	0.167825
C7	C	0.203671	0.519911	0.535669
C8	C	0.439862	0.458684	0.023283
C9	C	0.243966	0.605558	0.611884
C10	C	0.487824	0.380764	0.105099
C11	C	0.244121	0.896322	0.602652
C12	C	-0.000651	0.107283	0.107326
C13	C	0.395134	0.900567	0.740247
C14	C	0.154223	0.109065	0.237526
C15	C	0.084972	0.613786	0.726356
C16	C	0.342902	0.382445	0.243285
C17	C	0.039505	0.530795	0.651931
C18	C	0.280525	0.457429	0.157615
C19	C	0.100758	0.482723	0.555949
C20	C	0.345598	0.508304	0.055811
C21	C	0.431330	0.106975	0.476625
C22	C	0.179650	0.892312	0.981806
C23	C	0.059810	0.394375	0.475402
C24	C	0.305681	0.598551	0.982706
C25	C	0.792341	0.981303	0.526353
C26	C	0.541609	0.022070	0.026009
C27	C	0.893381	0.022192	0.554994
C28	C	0.641921	0.979798	0.055114
C29	C	0.952412	0.979395	0.659884
C30	C	0.700451	0.020004	0.162220
C31	C	0.723542	0.523569	0.527908
C32	C	0.957641	0.490540	0.042095
C33	C	0.758639	0.610671	0.604291
C34	C	0.998250	0.405614	0.120968
C35	C	0.751276	0.898175	0.603997
C36	C	0.500358	0.104223	0.105012
C37	C	0.907176	0.896449	0.733135
C38	C	0.655344	0.102587	0.236059
C39	C	0.607324	0.600819	0.731923
C40	C	0.838286	0.395173	0.232691
C41	C	0.567183	0.511680	0.659893
C42	C	0.794968	0.482122	0.161340
C43	C	0.625861	0.474448	0.555179
C44	C	0.855365	0.529005	0.063127
C45	C	0.935404	0.107991	0.473364
C46	C	0.685624	0.897695	0.969778
C47	C	0.580919	0.386937	0.474610
C48	C	0.813483	0.615812	0.980024
C49	C	0.146131	0.852149	0.563891
C50	C	0.059037	0.822372	0.520805
C51	C	0.898035	0.143117	0.068980
C52	C	0.808639	0.151214	0.018091
C53	C	0.346136	0.640168	0.580266
C54	C	0.434201	0.650274	0.531556
C55	C	0.589894	0.349912	0.069527
C56	C	0.677986	0.348141	0.019056
C57	C	0.648405	0.864065	0.569837
C58	C	0.557920	0.855009	0.522495
C59	C	0.398837	0.140526	0.067702
C60	C	0.310066	0.152159	0.016482
C61	C	0.553413	0.640846	0.835396
C62	C	0.481077	0.653927	0.925574
C63	C	0.102348	0.378538	0.104189
C64	C	0.204268	0.379631	0.084005
H1	H	0.237802	1.008755	0.443845
H2	H	0.492976	-0.006103	0.944271
H3	H	0.030962	1.009468	0.687542
H4	H	0.276109	0.992631	0.198127
H5	H	0.254896	0.484914	0.463135
H6	H	0.009399	0.525205	0.969904
H7	H	0.437932	0.866794	0.823733
H8	H	0.198729	0.145897	0.317707
H9	H	0.040196	0.651961	0.803109
H10	H	0.303988	0.350488	0.328795
H11	H	0.492296	0.474681	0.686965
H12	H	0.232213	0.512347	0.214676
H13	H	0.742648	1.011836	0.446933
H14	H	0.989080	-0.010592	0.954762
H15	H	0.518162	1.015431	0.699072
H16	H	0.777756	0.987552	0.191243
H17	H	0.773791	0.495288	0.450324
H18	H	0.484025	0.479078	0.937212
H19	H	0.834767	0.649876	0.587225
H20	H	0.951141	0.861103	0.814757
H21	H	0.699541	0.137740	0.317589
H22	H	0.791335	0.356059	0.306650
H23	H	0.958546	0.504987	0.671286
H24	H	0.716445	0.511833	0.185661
H25	H	0.984565	0.792100	0.481748
H26	H	0.733121	0.163993	-0.031156
H27	H	0.510473	0.664335	0.488772
H28	H	0.753322	0.340471	-0.028191
H29	H	0.480683	0.842323	0.477553
H30	H	0.234380	0.163240	-0.033093
H31	H	0.500850	0.668811	1.028314
H32	H	0.244398	0.325841	0.016953
N1	N	0.299211	0.857864	0.710641
N2	N	0.057259	0.150234	0.209975
N3	N	0.184727	0.650519	0.708661
N4	N	0.438320	0.345347	0.216401
N5	N	0.809506	0.856554	0.707178
N6	N	0.558049	0.143526	0.210076
N7	N	0.702466	0.649773	0.702951
N8	N	0.936314	0.356613	0.213936
Ni1	Ni	0.237411	0.756703	0.836053
Ni2	Ni	0.505038	0.244043	0.340935
Ni3	Ni	0.750369	0.756307	0.836033
Ni4	Ni	0.997679	0.250668	0.339628
O1	O	0.117846	0.348436	0.389072
O2	O	0.374409	0.643867	0.890904
O3	O	0.376798	0.155272	0.386407
O4	O	0.119123	0.848696	0.892853
O5	O	0.484707	0.353866	0.487370
O6	O	0.215687	0.639052	0.980813
O7	O	0.031202	0.143107	0.484093
O8	O	0.275391	0.856239	0.987758
O9	O	0.632907	0.339374	0.384741
O10	O	0.870783	0.659641	0.892033
O11	O	0.877651	0.153364	0.383419
O12	O	0.628978	0.855446	0.876500
O13	O	0.964893	0.357705	0.483805
O14	O	0.718061	0.652420	0.988143
O15	O	0.529606	0.135304	0.486164
O16	O	0.781653	0.863356	0.980604
