data_NiPyC2_relax_sc211_meta_functionalized_NH2_vdw-df2_relax_PM
_symmetry_space_group_name_H-M	'P1'
_cell_length_a	12.505617
_cell_length_b	12.523412
_cell_length_c	10.276810
_cell_angle_alpha	90.000000
_cell_angle_beta	91.268973
_cell_angle_gamma	90.000000
_symmetry_Int_Tables_number 1

loop_
_symmetry_equiv_pos_as_xyz
'x,y,z'

loop_
_atom_site_label
_atom_site_type_symbol
_atom_site_fract_x
_atom_site_fract_y
_atom_site_fract_z
C1	C	0.279527	0.978866	0.533615
C2	C	0.023794	0.003012	0.045369
C3	C	0.391485	0.003501	0.535810
C4	C	0.133333	0.980814	0.047359
C5	C	0.458343	0.942269	0.616070
C6	C	0.202076	0.043498	0.129844
C7	C	0.216327	0.536290	0.521883
C8	C	0.465210	0.468081	0.021675
C9	C	0.243971	0.625032	0.601593
C10	C	0.499953	0.385034	0.107018
C11	C	0.242360	0.896006	0.615470
C12	C	-0.016029	0.085426	0.121969
C13	C	0.414775	0.866349	0.698989
C14	C	0.155716	0.129941	0.197958
C15	C	0.090041	0.604489	0.723752
C16	C	0.328789	0.364909	0.187611
C17	C	0.057911	0.516196	0.649834
C18	C	0.288743	0.447707	0.109892
C19	C	0.119636	0.479957	0.547475
C20	C	0.356368	0.503259	0.028116
C21	C	0.434923	0.093997	0.464186
C22	C	0.176759	0.895784	0.967546
C23	C	0.082320	0.389964	0.467433
C24	C	0.315900	0.596466	0.956460
C25	C	0.780364	0.971253	0.524496
C26	C	0.555469	0.050386	0.007924
C27	C	0.877173	0.022163	0.553413
C28	C	0.648521	0.991098	0.047344
C29	C	0.940032	0.982956	0.661764
C30	C	0.700739	0.020857	0.162773
C31	C	0.715216	0.497866	0.564717
C32	C	0.965870	0.478393	0.033041
C33	C	0.754009	0.586032	0.639375
C34	C	1.001156	0.391253	0.106919
C35	C	0.747755	0.884276	0.598449
C36	C	0.518186	0.131518	0.091334
C37	C	0.902349	0.891991	0.730136
C38	C	0.659123	0.102547	0.239233
C39	C	0.579777	0.638090	0.686634
C40	C	0.838483	0.380471	0.214196
C41	C	0.535355	0.555006	0.613138
C42	C	0.799591	0.474094	0.150751
C43	C	0.601800	0.484464	0.548750
C44	C	0.864394	0.521246	0.052571
C45	C	0.916273	0.108810	0.471586
C46	C	0.688512	0.902166	0.969959
C47	C	0.557391	0.398717	0.468032
C48	C	0.824170	0.608880	0.971473
H1	H	0.018074	0.512967	0.962950
H2	H	0.317090	0.668109	0.585569
H3	H	0.079211	0.356786	0.096687
H4	H	0.158964	0.874293	0.615167
H5	H	0.446938	0.175090	0.064626
H6	H	0.461937	0.825038	0.771033
H7	H	0.205003	0.182221	0.256159
H8	H	0.044215	0.634128	0.802815
H9	H	0.279446	0.321938	0.253197
H10	H	0.450148	0.544206	0.610292
H11	H	0.206605	0.471271	0.117354
H12	H	0.729751	0.997698	0.445459
H13	H	0.968374	-0.044685	0.989267
H14	H	0.542822	0.957991	0.620181
H15	H	0.772102	0.980004	0.194937
H16	H	0.838661	0.599460	0.652763
H17	H	0.581760	0.358099	0.107098
H18	H	0.673883	0.843019	0.578464
H19	H	0.900134	0.103593	0.125526
H20	H	0.948174	0.858605	0.809816
H21	H	0.696745	0.127725	0.328235
H22	H	0.531135	0.691843	0.740376
H23	H	0.789374	0.337291	0.280644
H24	H	0.986250	0.474753	0.675763
H25	H	0.128294	1.025058	0.471753
H26	H	0.233200	0.100433	0.417162
H27	H	0.347620	0.064584	0.219187
H28	H	0.338627	0.959096	0.104540
H29	H	0.352136	0.546294	0.414425
H30	H	0.268525	0.439373	0.379147
H31	H	0.614183	0.493647	0.947094
H32	H	0.513056	0.577034	0.889560
H33	H	0.072244	0.992675	0.780040
H34	H	0.060035	0.094121	0.661886
H35	H	0.437228	0.077098	0.869543
H36	H	0.526243	0.973594	0.837478
H37	H	0.865800	0.433971	0.529681
H38	H	0.757989	0.361781	0.472023
H39	H	0.665347	0.475891	0.259933
H40	H	0.676961	0.581571	0.146568
N1	N	0.308192	0.846042	0.699519
N2	N	0.050364	0.146862	0.197510
N3	N	0.182940	0.656445	0.699418
N4	N	0.434027	0.338550	0.190692
N5	N	0.808309	0.847061	0.700249
N6	N	0.567503	0.154504	0.204493
N7	N	0.687269	0.651746	0.700374
N8	N	0.937546	0.344470	0.196290
N9	N	0.208110	0.033371	0.461671
N10	N	0.306805	1.024203	0.148118
N11	N	0.281385	0.509073	0.426048
N12	N	0.535590	0.511768	0.941217
N13	N	0.030862	0.028642	0.706536
N14	N	0.502654	1.033859	0.895065
N15	N	0.785243	0.427802	0.518692
N16	N	0.705882	0.514286	0.189384
Ni1	Ni	0.246494	0.752453	0.836180
Ni2	Ni	0.497524	0.247225	0.338447
Ni3	Ni	0.748220	0.752340	0.835987
Ni4	Ni	0.996279	0.246838	0.332528
O1	O	0.139920	0.340469	0.384835
O2	O	0.373429	0.648297	0.874021
O3	O	0.376993	0.145644	0.376369
O4	O	0.119752	0.851018	0.876068
O5	O	0.461106	0.365487	0.476574
O6	O	0.220760	0.632262	0.972907
O7	O	0.016614	0.135552	0.477165
O8	O	0.274400	0.862853	0.980198
O9	O	0.616156	0.352171	0.380540
O10	O	0.880284	0.654407	0.884213
O11	O	0.857905	0.160070	0.388605
O12	O	0.628252	0.856178	0.881242
O13	O	0.984317	0.358469	0.476314
O14	O	0.726273	0.642502	0.980603
O15	O	0.529856	0.128515	0.483910
O16	O	0.783534	0.865697	0.985633
