data_NiPyC2_relax_sc211_meta_functionalized_Br_vdw-df2_relax_PM
_symmetry_space_group_name_H-M	'P1'
_cell_length_a	12.505617
_cell_length_b	12.523412
_cell_length_c	10.276810
_cell_angle_alpha	90.000000
_cell_angle_beta	91.268973
_cell_angle_gamma	90.000000
_symmetry_Int_Tables_number 1

loop_
_symmetry_equiv_pos_as_xyz
'x,y,z'

loop_
_atom_site_label
_atom_site_type_symbol
_atom_site_fract_x
_atom_site_fract_y
_atom_site_fract_z
Br1	Br	0.596314	-0.036179	0.589208
Br2	Br	0.315704	0.932474	0.233159
Br3	Br	0.942064	0.422102	0.741832
Br4	Br	0.216292	0.604009	0.248195
Br5	Br	0.030418	0.101882	0.746290
Br6	Br	0.428869	1.023426	0.897745
Br7	Br	0.815811	0.505380	0.421254
Br8	Br	0.654181	0.492930	0.103045
C1	C	0.265579	1.012677	0.556303
C2	C	0.024816	-0.000285	0.045057
C3	C	0.375772	0.029794	0.546175
C4	C	0.128154	0.958354	0.062751
C5	C	0.445590	0.951387	0.596884
C6	C	0.192629	0.004158	0.162561
C7	C	0.221624	0.499743	0.548815
C8	C	0.411696	0.437626	-0.010587
C9	C	0.248771	0.595195	0.610433
C10	C	0.450380	0.357256	0.071877
C11	C	0.229453	0.922533	0.622182
C12	C	-0.004301	0.093036	0.108622
C13	C	0.404867	0.862253	0.662379
C14	C	0.160023	0.099097	0.222994
C15	C	0.088533	0.595502	0.725007
C16	C	0.342136	0.414795	0.240380
C17	C	0.058444	0.497904	0.667396
C18	C	0.304664	0.500828	0.165031
C19	C	0.121173	0.453635	0.568221
C20	C	0.340344	0.513174	0.037128
C21	C	0.416267	0.125855	0.480794
C22	C	0.168190	0.879432	0.970206
C23	C	0.081898	0.371632	0.476829
C24	C	0.304503	0.601722	0.953495
C25	C	0.843426	0.923440	0.479603
C26	C	0.524683	0.045191	0.039489
C27	C	0.911076	0.002689	0.530400
C28	C	0.628141	1.001687	0.052609
C29	C	0.944106	0.995313	0.661664
C30	C	0.693183	0.038986	0.156274
C31	C	0.719006	0.535383	0.554329
C32	C	0.985771	0.513015	0.062570
C33	C	0.756300	0.610334	0.645136
C34	C	1.017449	0.420149	0.128626
C35	C	0.805028	0.844410	0.562185
C36	C	0.488614	0.117865	0.131869
C37	C	0.905412	0.911851	0.738057
C38	C	0.654456	0.115646	0.242201
C39	C	0.589111	0.616874	0.743196
C40	C	0.839821	0.372821	0.168077
C41	C	0.549501	0.537175	0.660007
C42	C	0.803657	0.466247	0.105069
C43	C	0.614229	0.495168	0.562267
C44	C	0.876947	0.538891	0.052894
C45	C	0.945672	0.091438	0.448063
C46	C	0.670511	0.919234	0.965708
C47	C	0.571194	0.411743	0.475297
C48	C	0.840469	0.636915	0.985069
H1	H	0.208627	1.068527	0.516638
H2	H	0.278198	0.463167	0.486673
H3	H	0.045240	0.564466	1.022487
H4	H	0.324000	0.634117	0.594417
H5	H	0.100119	0.398571	0.141593
H6	H	0.145955	0.906979	0.635263
H7	H	0.408874	0.149509	0.127047
H8	H	0.456731	0.804384	0.708865
H9	H	0.208335	0.138375	0.296035
H10	H	0.040983	0.633821	0.797117
H11	H	0.313122	0.398445	0.334919
H12	H	0.469021	0.509044	0.670614
H13	H	0.817654	0.924863	0.378982
H14	H	0.967163	-0.038668	0.983192
H15	H	0.773075	1.009096	0.170059
H16	H	0.440183	0.443240	0.891686
H17	H	0.837165	0.639018	0.644951
H18	H	0.509326	0.301584	0.039650
H19	H	0.749816	0.784903	0.526911
H20	H	0.918145	0.128572	0.093489
H21	H	0.931130	0.899845	0.836178
H22	H	0.701773	0.146221	0.322164
H23	H	0.541933	0.651894	0.818012
H24	H	0.785133	0.317787	0.212071
N1	N	0.298440	0.851057	0.677490
N2	N	0.063798	0.143102	0.192297
N3	N	0.181347	0.643534	0.692910
N4	N	0.418514	0.348414	0.196542
N5	N	0.831652	0.842461	0.690830
N6	N	0.553747	0.154224	0.227730
N7	N	0.690682	0.653099	0.732910
N8	N	0.945657	0.352928	0.182879
Ni1	Ni	0.245604	0.752765	0.813193
Ni2	Ni	0.496214	0.265736	0.340466
Ni3	Ni	0.747946	0.772553	0.836190
Ni4	Ni	0.998241	0.246889	0.315303
O1	O	0.139412	0.333878	0.385981
O2	O	0.365435	0.642052	0.867023
O3	O	0.358994	0.178068	0.397189
O4	O	0.109899	0.840780	0.876962
O5	O	0.471639	0.385661	0.477032
O6	O	0.210481	0.640572	0.963326
O7	O	0.040269	0.128948	0.459861
O8	O	0.267531	0.850777	0.971654
O9	O	0.628681	0.359232	0.394271
O10	O	0.896874	0.683953	0.900327
O11	O	0.882223	0.134362	0.362833
O12	O	0.611353	0.859830	0.891072
O13	O	0.983165	0.340244	0.476494
O14	O	0.746198	0.675655	1.003678
O15	O	0.512731	0.159178	0.499700
O16	O	0.771799	0.901189	0.963384
