data_NiPyC2_relax_sc211_ortho_functionalized_Br_pbesol_relax_PM
_symmetry_space_group_name_H-M	'P1'
_cell_length_a	12.505617
_cell_length_b	12.523412
_cell_length_c	10.276810
_cell_angle_alpha	90.000000
_cell_angle_beta	91.268973
_cell_angle_gamma	90.000000
_symmetry_Int_Tables_number 1

loop_
_symmetry_equiv_pos_as_xyz
'x,y,z'

loop_
_atom_site_label
_atom_site_type_symbol
_atom_site_fract_x
_atom_site_fract_y
_atom_site_fract_z
Br1	Br	0.121018	0.849934	0.541877
Br2	Br	0.889631	0.163758	0.025076
Br3	Br	0.056276	0.665431	0.937024
Br4	Br	0.280728	0.319480	0.408920
Br5	Br	0.936318	0.893627	0.907913
Br6	Br	0.387683	0.191167	0.021231
Br7	Br	0.486779	0.639687	0.803530
Br8	Br	0.127273	0.360748	0.053507
C1	C	0.309782	0.958184	0.488499
C2	C	0.087417	0.068870	-0.013770
C3	C	0.413988	-0.006954	0.514390
C4	C	0.177971	1.013151	0.030022
C5	C	0.469458	0.954913	0.623899
C6	C	0.216993	0.031079	0.156405
C7	C	0.163004	0.537690	0.543395
C8	C	0.454243	0.506250	0.091898
C9	C	0.218514	0.616744	0.612814
C10	C	0.497510	0.413690	0.148725
C11	C	0.263237	0.887080	0.575713
C12	C	0.028547	0.126089	0.076825
C13	C	0.416720	0.884584	0.705972
C14	C	0.159502	0.099363	0.236702
C15	C	0.089768	0.617051	0.771072
C16	C	0.351157	0.393435	0.279221
C17	C	0.026064	0.542366	0.704370
C18	C	0.301420	0.484867	0.226677
C19	C	0.066952	0.498448	0.590858
C20	C	0.353845	0.541291	0.129753
C21	C	0.460995	0.075448	0.432697
C22	C	0.219003	0.928506	0.946713
C23	C	0.008592	0.408120	0.525403
C24	C	0.297968	0.637240	1.071313
C25	C	0.796390	0.959346	0.499423
C26	C	0.540245	0.031190	-0.010689
C27	C	0.884033	0.020447	0.541848
C28	C	0.632376	0.974046	0.023556
C29	C	0.931328	0.998325	0.663417
C30	C	0.696109	0.007917	0.128932
C31	C	0.728495	0.517309	0.510327
C32	C	0.927781	0.457304	0.011206
C33	C	0.750040	0.607519	0.586803
C34	C	0.985960	0.390342	0.095347
C35	C	0.761575	0.875049	0.577328
C36	C	0.512493	0.117874	0.067731
C37	C	0.887151	0.915967	0.737367
C38	C	0.664045	0.097217	0.199794
C39	C	0.587606	0.592237	0.688020
C40	C	0.847389	0.385309	0.241144
C41	C	0.560816	0.499995	0.618768
C42	C	0.788539	0.460044	0.168507
C43	C	0.633736	0.461163	0.530034
C44	C	0.829624	0.496309	0.051399
C45	C	0.927735	0.106661	0.461230
C46	C	0.663731	0.881673	0.947031
C47	C	0.601456	0.364862	0.459604
C48	C	0.770675	0.577377	0.972509
H1	H	0.263771	0.985414	0.404346
H2	H	0.489340	0.009042	0.906669
H3	H	-0.001141	1.044365	0.700786
H4	H	0.289432	0.993193	0.193668
H5	H	0.195308	0.508482	0.453427
H6	H	-0.039287	0.477261	0.918071
H7	H	0.293161	0.650512	0.579338
H8	H	0.455882	0.856913	0.794857
H9	H	0.187362	0.118153	0.334821
H10	H	0.485020	0.460174	0.634470
H11	H	0.223630	0.510008	0.260038
H12	H	0.754793	0.975191	0.407639
H13	H	1.060022	0.065801	0.885595
H14	H	0.550247	0.980103	0.649096
H15	H	0.769258	0.966428	0.157023
H16	H	0.786825	0.491704	0.440673
H17	H	0.501876	0.548080	1.021659
H18	H	0.824892	0.651248	0.579779
H19	H	0.575337	0.383494	0.121535
H20	H	0.695003	0.824360	0.547077
H21	H	0.711611	0.127298	0.281615
H22	H	0.816114	0.350391	0.329282
H23	H	0.948313	0.519485	0.740129
H24	H	0.712345	0.487375	0.204004
N1	N	0.316090	0.849489	0.682532
N2	N	0.065133	0.144301	0.199820
N3	N	0.182809	0.655629	0.726415
N4	N	0.446728	0.356710	0.240329
N5	N	0.806708	0.852057	0.695046
N6	N	0.571478	0.149445	0.172807
N7	N	0.681242	0.644679	0.676095
N8	N	0.944645	0.350865	0.205640
Ni1	Ni	0.256366	0.767491	0.828648
Ni2	Ni	0.522893	0.231722	0.324310
Ni3	Ni	0.735286	0.744322	0.811957
Ni4	Ni	1.003499	0.243581	0.325503
O1	O	0.056496	0.361953	0.428917
O2	O	0.316276	0.659043	0.950152
O3	O	0.404059	0.127400	0.347375
O4	O	0.157530	0.890447	0.854506
O5	O	0.515435	0.315066	0.489431
O6	O	0.234753	0.688200	1.139242
O7	O	0.024191	0.140721	0.475720
O8	O	0.308533	0.881380	0.961987
O9	O	0.648915	0.326815	0.360324
O10	O	0.821148	0.627362	0.880942
O11	O	0.873375	0.152972	0.369969
O12	O	0.620825	0.857543	0.836310
O13	O	0.919519	0.378259	0.562768
O14	O	0.675308	0.597955	0.995389
O15	O	0.558447	0.105005	0.444376
O16	O	0.740612	0.819180	0.983423
