data_NiPyC2_relax_sc211_meta_functionalized_N-C-O_vdw-df2_relax_PM
_symmetry_space_group_name_H-M	'P1'
_cell_length_a	12.505617
_cell_length_b	12.523412
_cell_length_c	10.276810
_cell_angle_alpha	90.000000
_cell_angle_beta	91.268973
_cell_angle_gamma	90.000000
_symmetry_Int_Tables_number 1

loop_
_symmetry_equiv_pos_as_xyz
'x,y,z'

loop_
_atom_site_label
_atom_site_type_symbol
_atom_site_fract_x
_atom_site_fract_y
_atom_site_fract_z
C1	C	0.287546	0.962432	0.529377
C2	C	0.039486	0.048643	0.023381
C3	C	0.393668	0.002528	0.543256
C4	C	0.144098	1.005358	0.042720
C5	C	0.461264	0.953750	0.635298
C6	C	0.210211	0.054112	0.136484
C7	C	0.201989	0.553383	0.518996
C8	C	0.464761	0.469438	0.042922
C9	C	0.235569	0.636975	0.603905
C10	C	0.500073	0.392312	0.135157
C11	C	0.251323	0.889381	0.623864
C12	C	0.002568	0.124146	0.115205
C13	C	0.422357	0.873963	0.717198
C14	C	0.170557	0.134700	0.216883
C15	C	0.080520	0.624890	0.724717
C16	C	0.328195	0.372184	0.214751
C17	C	0.040783	0.544150	0.642774
C18	C	0.289259	0.453680	0.132753
C19	C	0.102962	0.502262	0.543813
C20	C	0.357840	0.507614	0.049839
C21	C	0.433568	0.092605	0.467237
C22	C	0.183433	0.911540	0.971310
C23	C	0.065660	0.404829	0.476630
C24	C	0.318573	0.599926	0.974556
C25	C	0.786551	0.954396	0.521226
C26	C	0.539021	0.049753	0.022080
C27	C	0.890913	-0.002148	0.540112
C28	C	0.644220	1.007283	0.038171
C29	C	0.957796	0.950148	0.633925
C30	C	0.711876	0.056389	0.130149
C31	C	0.718471	0.514499	0.559032
C32	C	0.949006	0.459534	0.033482
C33	C	0.753912	0.599636	0.635790
C34	C	0.985308	0.380885	0.123225
C35	C	0.751011	0.877539	0.612101
C36	C	0.503726	0.125376	0.114560
C37	C	0.919508	0.868771	0.714045
C38	C	0.673990	0.137595	0.210717
C39	C	0.582238	0.629322	0.716088
C40	C	0.837269	0.406341	0.253281
C41	C	0.542021	0.540990	0.644204
C42	C	0.803109	0.493168	0.177315
C43	C	0.611205	0.483937	0.561543
C44	C	0.859918	0.523158	0.067302
C45	C	0.929562	0.091140	0.468448
C46	C	0.683721	0.913920	0.966430
C47	C	0.570832	0.394251	0.483611
C48	C	0.821910	0.612428	0.986319
C49	C	0.135997	0.948536	0.387213
C50	C	0.888814	0.062397	0.880815
C51	C	0.356650	0.558431	0.390555
C52	C	0.619100	0.458404	0.915951
C53	C	0.633556	0.945682	0.381020
C54	C	0.384836	0.062797	0.885402
C55	C	0.376236	0.462854	0.724716
C56	C	0.052762	0.392112	0.867630
H1	H	0.037485	0.979423	0.651090
H2	H	0.290671	1.026782	0.153488
H3	H	0.311461	0.675082	0.589761
H4	H	0.059297	0.339726	0.106882
H5	H	0.169045	0.864384	0.623234
H6	H	0.421888	0.152338	0.112309
H7	H	0.471260	0.837069	0.790779
H8	H	0.218259	0.170458	0.292476
H9	H	0.037657	0.652784	0.806956
H10	H	0.278497	0.333150	0.283437
H11	H	0.206905	0.477120	0.138873
H12	H	0.542509	0.979847	0.648696
H13	H	0.792468	1.028854	0.144851
H14	H	0.775277	0.471446	0.502594
H15	H	0.835709	0.625384	0.638779
H16	H	0.582996	0.368842	0.139520
H17	H	0.669830	0.848796	0.606961
H18	H	0.921080	0.152120	0.109931
H19	H	0.967676	0.832936	0.789363
H20	H	0.723088	0.175196	0.283804
H21	H	0.531789	0.672541	0.780737
H22	H	0.793541	0.378288	0.334690
H23	H	0.964732	0.509424	0.663209
H24	H	0.732010	0.535649	0.203454
N1	N	0.317392	0.847811	0.714333
N2	N	0.066081	0.163062	0.209916
N3	N	0.178893	0.666918	0.706217
N4	N	0.433516	0.346405	0.218015
N5	N	0.815429	0.838944	0.706115
N6	N	0.569274	0.165058	0.206522
N7	N	0.686189	0.653868	0.713457
N8	N	0.929261	0.353589	0.226793
N9	N	0.221116	-0.012090	0.427794
N10	N	0.974199	1.022884	0.920751
N11	N	0.266937	0.525416	0.420034
N12	N	0.533260	0.499034	0.948098
N13	N	0.720598	-0.018087	0.419917
N14	N	0.471357	1.023401	0.921943
N15	N	0.437754	0.513669	0.658676
N16	N	-0.003563	0.463778	0.915179
Ni1	Ni	0.252739	0.753313	0.845885
Ni2	Ni	0.503196	0.247588	0.348511
Ni3	Ni	0.747346	0.753370	0.844923
Ni4	Ni	0.996928	0.248058	0.349047
O1	O	0.122101	0.353688	0.393678
O2	O	0.378262	0.653766	0.897113
O3	O	0.377854	0.141577	0.378999
O4	O	0.127854	0.862990	0.882640
O5	O	0.475111	0.357938	0.493695
O6	O	0.221396	0.633240	0.981818
O7	O	0.023579	0.129852	0.491421
O8	O	0.277013	0.872102	0.995393
O9	O	0.628689	0.347409	0.397798
O10	O	0.878290	0.657358	0.898740
O11	O	0.873942	0.140645	0.380139
O12	O	0.626708	0.861641	0.881717
O13	O	0.972643	0.365310	0.498634
O14	O	0.726216	0.649439	0.997784
O15	O	0.529195	0.128986	0.486812
O16	O	0.778856	0.877820	0.986472
O17	O	0.058249	0.920740	0.332249
O18	O	0.810275	0.090687	0.827972
O19	O	0.439921	0.579430	0.348369
O20	O	0.697565	0.427882	0.868947
O21	O	0.553227	0.921043	0.329573
O22	O	0.305002	0.090550	0.835391
O23	O	0.308357	0.419440	0.780278
O24	O	0.101739	0.329491	0.810649
