data_NiPyC2_relax_sc211_meta_functionalized_CH-O_pbesol_relax_PM
_symmetry_space_group_name_H-M	'P1'
_cell_length_a	12.505617
_cell_length_b	12.523412
_cell_length_c	10.276810
_cell_angle_alpha	90.000000
_cell_angle_beta	91.268973
_cell_angle_gamma	90.000000
_symmetry_Int_Tables_number 1

loop_
_symmetry_equiv_pos_as_xyz
'x,y,z'

loop_
_atom_site_label
_atom_site_type_symbol
_atom_site_fract_x
_atom_site_fract_y
_atom_site_fract_z
C1	C	0.269678	0.989089	0.543493
C2	C	0.044319	0.048193	0.039896
C3	C	0.369540	0.037504	0.557411
C4	C	0.144196	0.998349	0.063325
C5	C	0.438564	0.997092	0.658299
C6	C	0.202445	0.031520	0.173537
C7	C	0.211672	0.549213	0.532931
C8	C	0.460357	0.479526	0.036864
C9	C	0.248816	0.632784	0.614847
C10	C	0.489903	0.386513	0.104403
C11	C	0.242498	0.903808	0.624144
C12	C	0.006841	0.126595	0.126044
C13	C	0.406372	0.908693	0.735505
C14	C	0.159877	0.109601	0.255355
C15	C	0.087434	0.637295	0.719745
C16	C	0.317458	0.367021	0.182063
C17	C	0.045408	0.554358	0.642217
C18	C	0.282745	0.458679	0.115717
C19	C	0.109145	0.504972	0.550326
C20	C	0.355018	0.518096	0.043022
C21	C	0.408468	0.119916	0.469137
C22	C	0.185720	0.911014	0.982048
C23	C	0.069983	0.407751	0.482513
C24	C	0.318240	0.613117	0.971150
C25	C	0.790662	0.967664	0.542098
C26	C	0.514912	-0.002114	0.033806
C27	C	0.896912	0.004791	0.554266
C28	C	0.621891	0.966832	0.041177
C29	C	0.965938	0.946987	0.635901
C30	C	0.689214	0.021696	0.133254
C31	C	0.731440	0.512688	0.527440
C32	C	0.966457	0.454712	0.042250
C33	C	0.762844	0.596243	0.610152
C34	C	1.001803	0.376479	0.131173
C35	C	0.757788	0.878309	0.615217
C36	C	0.479287	0.082950	0.108730
C37	C	0.927163	0.860078	0.707004
C38	C	0.649300	0.111148	0.201544
C39	C	0.595250	0.607215	0.701644
C40	C	0.844968	0.392715	0.246733
C41	C	0.560012	0.517724	0.626800
C42	C	0.807487	0.474951	0.165030
C43	C	0.628319	0.470870	0.533116
C44	C	0.869297	0.509066	0.061160
C45	C	0.935363	0.099652	0.484347
C46	C	0.665873	0.883536	0.960591
C47	C	0.588248	0.385286	0.448328
C48	C	0.831132	0.597170	0.976892
C49	C	0.535656	0.042868	0.691875
C50	C	0.972959	1.015248	0.935978
C51	C	0.285299	0.503763	0.443345
C52	C	0.547138	0.530205	0.966878
C53	C	0.708118	0.025110	0.477434
C54	C	0.788760	0.984382	0.172080
C55	C	0.464511	0.472932	0.663444
C56	C	0.031545	0.472992	0.928717
H1	H	0.211520	1.015846	0.470780
H2	H	0.456926	-0.044348	0.973283
H3	H	0.048393	0.971868	0.650903
H4	H	0.279140	0.995716	0.199170
H5	H	0.329548	0.663834	0.605010
H6	H	0.078611	0.337471	0.118759
H7	H	0.166381	0.862922	0.613391
H8	H	0.396202	0.108442	0.106011
H9	H	0.460451	0.873368	0.808178
H10	H	0.204349	0.137833	0.340355
H11	H	0.041457	0.672823	0.796727
H12	H	0.264446	0.319769	0.241540
H13	H	0.200117	0.483830	0.122738
H14	H	0.789659	0.480394	0.461432
H15	H	0.842834	0.629500	0.608219
H16	H	0.571747	0.357047	0.101246
H17	H	0.674978	0.851747	0.609408
H18	H	0.929447	0.164205	0.108411
H19	H	0.978204	0.817189	0.775663
H20	H	0.700513	0.157211	0.267750
H21	H	0.541268	0.647469	0.767162
H22	H	0.797128	0.361532	0.325086
H23	H	0.965499	0.525023	0.660646
H24	H	0.730394	0.511092	0.183394
H25	H	0.565835	0.041751	0.437002
H26	H	1.009808	0.956978	0.867761
H27	H	0.254620	0.429676	0.393855
H28	H	0.543503	0.618907	0.957794
H29	H	0.716734	0.111239	0.461894
H30	H	0.812157	0.938628	-0.060108
H31	H	0.439889	0.441509	0.426263
H32	H	-0.006603	0.536844	0.865157
N1	N	0.309203	0.865707	0.719148
N2	N	0.063642	0.155116	0.231916
N3	N	0.188782	0.672657	0.709291
N4	N	0.420758	0.334581	0.179136
N5	N	0.823422	0.829305	0.700310
N6	N	0.545952	0.138842	0.189683
N7	N	0.696100	0.641529	0.696762
N8	N	0.941949	0.347353	0.231392
Ni1	Ni	0.253094	0.764483	0.851376
Ni2	Ni	0.486939	0.242680	0.309269
Ni3	Ni	0.756508	0.737100	0.835474
Ni4	Ni	1.002513	0.250621	0.364467
O1	O	0.126711	0.353218	0.402309
O2	O	0.376983	0.664225	0.890050
O3	O	0.352254	0.171483	0.386391
O4	O	0.129475	0.864252	0.891608
O5	O	0.480845	0.368815	0.444171
O6	O	0.223620	0.651281	0.982767
O7	O	0.030878	0.135742	0.500140
O8	O	0.280976	0.874704	0.996346
O9	O	0.639809	0.323331	0.379304
O10	O	0.881631	0.631050	0.876588
O11	O	0.877395	0.152851	0.401334
O12	O	0.616578	0.820375	0.886927
O13	O	0.976321	0.369645	0.499411
O14	O	0.743792	0.647322	0.997423
O15	O	0.510784	0.141380	0.467169
O16	O	0.774108	0.869264	0.965444
O17	O	0.616593	1.072450	0.736138
O18	O	0.877120	0.039975	0.924934
O19	O	0.378361	0.535711	0.427147
O20	O	0.620505	0.478765	0.921870
O21	O	0.618524	0.978516	0.449246
O22	O	0.869097	-0.042642	0.220073
O23	O	0.386950	0.440663	0.709008
O24	O	0.113132	0.427559	0.899807
