data_NiPyC2_relax_sc211_meta_functionalized_F_vdw-df2_relax_PM
_symmetry_space_group_name_H-M	'P1'
_cell_length_a	12.505617
_cell_length_b	12.523412
_cell_length_c	10.276810
_cell_angle_alpha	90.000000
_cell_angle_beta	91.268973
_cell_angle_gamma	90.000000
_symmetry_Int_Tables_number 1

loop_
_symmetry_equiv_pos_as_xyz
'x,y,z'

loop_
_atom_site_label
_atom_site_type_symbol
_atom_site_fract_x
_atom_site_fract_y
_atom_site_fract_z
C1	C	0.287884	0.975235	0.531058
C2	C	0.041693	0.037691	0.023531
C3	C	0.393405	0.010432	0.548973
C4	C	0.144197	0.992987	0.044565
C5	C	0.456273	0.959908	0.646384
C6	C	0.206026	0.035007	0.147705
C7	C	0.211727	0.529713	0.533385
C8	C	0.459062	0.476963	0.037224
C9	C	0.246712	0.614418	0.612873
C10	C	0.495372	0.391303	0.113706
C11	C	0.248956	0.893104	0.608806
C12	C	0.002651	0.116392	0.107349
C13	C	0.413923	0.875726	0.720473
C14	C	0.164302	0.115346	0.226778
C15	C	0.083439	0.614636	0.720605
C16	C	0.332707	0.380708	0.221951
C17	C	0.045008	0.530005	0.643968
C18	C	0.292770	0.467652	0.148154
C19	C	0.109615	0.484464	0.549148
C20	C	0.355578	0.516575	0.052681
C21	C	0.435581	0.097356	0.470135
C22	C	0.184252	0.904541	0.965828
C23	C	0.070357	0.393780	0.471951
C24	C	0.314328	0.604501	0.971790
C25	C	0.788283	0.959941	0.519822
C26	C	0.534701	0.035066	0.026409
C27	C	0.891750	0.002808	0.539975
C28	C	0.640067	0.995431	0.040298
C29	C	0.954981	0.957104	0.639041
C30	C	0.705703	0.044420	0.134669
C31	C	0.710742	0.528879	0.534519
C32	C	0.959586	0.475620	0.036440
C33	C	0.746528	0.612412	0.615262
C34	C	0.995856	0.390182	0.113273
C35	C	0.749939	0.879881	0.602418
C36	C	0.497206	0.114268	0.110707
C37	C	0.913656	0.876177	0.717457
C38	C	0.665254	0.125144	0.214443
C39	C	0.583104	0.613674	0.722783
C40	C	0.833336	0.380308	0.222087
C41	C	0.543967	0.529961	0.645246
C42	C	0.793458	0.467106	0.148036
C43	C	0.608007	0.484724	0.549708
C44	C	0.856280	0.515570	0.052214
C45	C	0.933252	0.093043	0.465398
C46	C	0.680440	0.904646	0.965367
C47	C	0.567407	0.395107	0.471772
C48	C	0.815412	0.603962	0.971845
F1	F	0.555330	-0.008894	0.674026
F2	F	0.977500	1.008948	0.925293
F3	F	0.279391	0.495934	0.445006
F4	F	0.195437	0.502458	0.173637
F5	F	0.722714	-0.008443	0.424519
F6	F	0.465665	1.000712	0.936249
F7	F	0.778291	0.495310	0.445799
F8	F	0.696322	0.502372	0.173622
H1	H	0.235441	1.012091	0.460183
H2	H	0.034287	0.985984	0.659444
H3	H	0.285038	1.004925	0.168511
H4	H	0.012535	0.510978	0.967796
H5	H	0.325617	0.647158	0.602423
H6	H	0.074748	0.357911	0.105028
H7	H	0.168118	0.864676	0.599847
H8	H	0.415702	0.141512	0.102977
H9	H	0.460893	0.838303	0.796071
H10	H	0.209016	0.148691	0.306927
H11	H	0.037230	0.649645	0.796069
H12	H	0.285126	0.344455	0.295370
H13	H	0.464975	0.499522	0.660763
H14	H	0.786513	1.017887	0.150605
H15	H	0.512097	0.512482	0.968791
H16	H	0.825708	0.644631	0.605496
H17	H	0.574232	0.359075	0.105209
H18	H	0.670080	0.849545	0.589641
H19	H	0.923157	0.147891	0.093236
H20	H	0.958945	0.841665	0.796119
H21	H	0.712607	0.161396	0.290101
H22	H	0.537084	0.648819	0.798327
H23	H	0.785981	0.344390	0.295979
H24	H	0.966246	0.499137	0.659952
N1	N	0.311789	0.846070	0.701952
N2	N	0.063506	0.153044	0.206701
N3	N	0.183231	0.654454	0.704409
N4	N	0.432728	0.345914	0.204741
N5	N	0.811562	0.842082	0.700353
N6	N	0.561710	0.155943	0.203525
N7	N	0.683204	0.652617	0.706897
N8	N	0.933271	0.345179	0.204619
Ni1	Ni	0.246947	0.752848	0.836761
Ni2	Ni	0.497342	0.247413	0.339810
Ni3	Ni	0.746724	0.752747	0.837134
Ni4	Ni	0.997660	0.247092	0.339950
O1	O	0.126746	0.343947	0.387766
O2	O	0.372332	0.649424	0.884477
O3	O	0.377201	0.141895	0.379186
O4	O	0.127301	0.858936	0.875025
O5	O	0.471517	0.359546	0.484936
O6	O	0.218618	0.640982	0.980108
O7	O	0.029264	0.127503	0.483588
O8	O	0.278608	0.865901	0.983876
O9	O	0.623159	0.346257	0.386107
O10	O	0.873112	0.648573	0.884201
O11	O	0.876573	0.143959	0.378867
O12	O	0.621961	0.851037	0.883476
O13	O	0.974071	0.358676	0.484367
O14	O	0.720181	0.641382	0.981241
O15	O	0.530332	0.134968	0.484185
O16	O	0.777601	0.871871	0.979038
