data_NiPyC2_relax_sc211_meta_functionalized_C-N_vdw-df2_relax_PM
_symmetry_space_group_name_H-M	'P1'
_cell_length_a	12.505617
_cell_length_b	12.523412
_cell_length_c	10.276810
_cell_angle_alpha	90.000000
_cell_angle_beta	91.268973
_cell_angle_gamma	90.000000
_symmetry_Int_Tables_number 1

loop_
_symmetry_equiv_pos_as_xyz
'x,y,z'

loop_
_atom_site_label
_atom_site_type_symbol
_atom_site_fract_x
_atom_site_fract_y
_atom_site_fract_z
C1	C	0.290595	0.969239	0.521621
C2	C	0.038946	0.027320	0.022474
C3	C	0.390486	0.014620	0.548443
C4	C	0.139292	0.983125	0.048545
C5	C	0.453237	0.973744	0.653858
C6	C	0.201650	0.022408	0.155277
C7	C	0.205545	0.532038	0.521500
C8	C	0.465200	0.476837	0.036449
C9	C	0.241042	0.615849	0.604535
C10	C	0.498844	0.386675	0.108608
C11	C	0.254997	0.884179	0.597699
C12	C	0.002787	0.111356	0.099574
C13	C	0.410807	0.888322	0.727800
C14	C	0.158823	0.106858	0.230237
C15	C	0.084235	0.603239	0.734545
C16	C	0.335399	0.382473	0.216581
C17	C	0.042458	0.517156	0.642748
C18	C	0.297191	0.471544	0.147760
C19	C	0.106763	0.483548	0.541091
C20	C	0.362512	0.521342	0.057808
C21	C	0.430499	0.102630	0.469234
C22	C	0.180993	0.898284	0.966379
C23	C	0.068975	0.395027	0.459011
C24	C	0.324909	0.614352	0.983190
C25	C	0.790585	0.969250	0.521590
C26	C	0.538925	0.027325	0.022466
C27	C	0.890483	0.014611	0.548451
C28	C	0.639281	0.983124	0.048541
C29	C	0.953239	0.973746	0.653854
C30	C	0.701638	0.022402	0.155274
C31	C	0.705549	0.532036	0.521486
C32	C	0.965201	0.476853	0.036465
C33	C	0.741041	0.615843	0.604525
C34	C	0.998850	0.386687	0.108615
C35	C	0.754985	0.884169	0.597702
C36	C	0.502803	0.111353	0.099562
C37	C	0.910812	0.888312	0.727801
C38	C	0.658815	0.106857	0.230221
C39	C	0.584227	0.603233	0.734529
C40	C	0.835408	0.382473	0.216586
C41	C	0.542457	0.517148	0.642726
C42	C	0.797187	0.471542	0.147760
C43	C	0.606764	0.483546	0.541071
C44	C	0.862507	0.521350	0.057802
C45	C	0.930500	0.102620	0.469239
C46	C	0.680984	0.898289	0.966355
C47	C	0.568983	0.395029	0.458984
C48	C	0.824902	0.614348	0.983183
C49	C	0.552799	0.016731	0.692480
C50	C	0.301057	0.978760	0.193658
C51	C	0.944970	0.472060	0.675892
C52	C	0.531940	0.519634	0.943606
C53	C	0.052808	0.016739	0.692478
C54	C	0.801046	0.978749	0.193642
C55	C	0.444984	0.472048	0.675871
C56	C	0.031953	0.519642	0.943627
H1	H	0.239426	0.999118	0.445204
H2	H	0.488283	-0.002412	0.945464
H3	H	0.256752	0.504916	0.445785
H4	H	0.316662	0.653945	0.587843
H5	H	0.076850	0.352142	0.096472
H6	H	0.178744	0.847001	0.579496
H7	H	0.426579	0.148492	0.081482
H8	H	0.454489	0.856077	0.809730
H9	H	0.202306	0.139300	0.312194
H10	H	0.025883	0.667401	0.744543
H11	H	0.289420	0.343376	0.289240
H12	H	0.218446	0.501556	0.166016
H13	H	0.739418	0.999118	0.445196
H14	H	0.988294	-0.002429	0.945487
H15	H	0.756762	0.504932	0.445787
H16	H	0.816667	0.653955	0.587847
H17	H	0.576840	0.352136	0.096448
H18	H	0.678755	0.847000	0.579493
H19	H	0.926576	0.148486	0.081481
H20	H	0.954498	0.856070	0.809721
H21	H	0.702298	0.139280	0.312182
H22	H	0.525877	0.667408	0.744521
H23	H	0.789424	0.343380	0.289252
H24	H	0.718447	0.501560	0.166013
N1	N	0.314190	0.846401	0.699480
N2	N	0.062038	0.148391	0.201803
N3	N	0.187621	0.649334	0.705449
N4	N	0.434978	0.343092	0.197221
N5	N	0.814198	0.846400	0.699473
N6	N	0.562025	0.148396	0.201797
N7	N	0.687618	0.649321	0.705430
N8	N	0.934987	0.343099	0.197224
N9	N	0.635166	0.048277	0.732368
N10	N	0.382863	0.945665	0.233349
N11	N	0.865409	0.442776	0.722197
N12	N	0.589570	0.554462	0.867124
N13	N	0.135171	0.048273	0.732379
N14	N	0.882859	0.945658	0.233350
N15	N	0.365417	0.442767	0.722197
N16	N	0.089566	0.554469	0.867137
Ni1	Ni	0.248110	0.752153	0.835640
Ni2	Ni	0.497484	0.246593	0.332266
Ni3	Ni	0.748160	0.752112	0.835643
Ni4	Ni	0.997474	0.246571	0.332288
O1	O	0.127661	0.347724	0.375597
O2	O	0.378715	0.655070	0.889625
O3	O	0.370473	0.153413	0.386199
O4	O	0.121172	0.844504	0.885387
O5	O	0.472349	0.360151	0.468275
O6	O	0.234134	0.657862	1.004540
O7	O	0.028325	0.133909	0.476488
O8	O	0.280170	0.872548	0.970325
O9	O	0.627672	0.347734	0.375566
O10	O	0.878709	0.655090	0.889615
O11	O	0.870478	0.153401	0.386188
O12	O	0.621167	0.844526	0.885374
O13	O	0.972342	0.360161	0.468285
O14	O	0.734119	0.657854	1.004520
O15	O	0.528328	0.133913	0.476482
O16	O	0.780165	0.872547	0.970324
