data_NiPyC2_relax_sc211_meta_functionalized_Br_pbesol_relax_PM
_symmetry_space_group_name_H-M	'P1'
_cell_length_a	12.505617
_cell_length_b	12.523412
_cell_length_c	10.276810
_cell_angle_alpha	90.000000
_cell_angle_beta	91.268973
_cell_angle_gamma	90.000000
_symmetry_Int_Tables_number 1

loop_
_symmetry_equiv_pos_as_xyz
'x,y,z'

loop_
_atom_site_label
_atom_site_type_symbol
_atom_site_fract_x
_atom_site_fract_y
_atom_site_fract_z
Br1	Br	0.586957	-0.014829	0.620981
Br2	Br	0.317755	0.936705	0.219591
Br3	Br	0.936898	0.433771	0.722616
Br4	Br	0.200765	0.586958	0.231626
Br5	Br	0.048434	0.084935	0.738548
Br6	Br	0.440227	0.996195	0.915248
Br7	Br	0.807293	0.493761	0.425469
Br8	Br	0.663083	0.489701	0.125892
C1	C	0.262930	1.000021	0.542190
C2	C	0.029731	0.008499	0.037523
C3	C	0.371762	0.025735	0.540009
C4	C	0.131439	0.963703	0.055064
C5	C	0.441522	0.957472	0.609682
C6	C	0.194962	0.005065	0.158385
C7	C	0.215275	0.512060	0.536215
C8	C	0.426086	0.447025	-0.003085
C9	C	0.245193	0.602774	0.606728
C10	C	0.462945	0.365739	0.080170
C11	C	0.228275	0.913070	0.616348
C12	C	-0.000843	0.096687	0.110584
C13	C	0.402483	0.869510	0.680435
C14	C	0.161420	0.095869	0.227261
C15	C	0.087750	0.597780	0.724818
C16	C	0.341577	0.412910	0.238328
C17	C	0.055031	0.504614	0.658509
C18	C	0.302965	0.497729	0.160698
C19	C	0.116232	0.463605	0.556147
C20	C	0.346023	0.516447	0.037231
C21	C	0.413448	0.118906	0.469396
C22	C	0.170203	0.881806	0.965842
C23	C	0.077819	0.378345	0.469224
C24	C	0.306892	0.603732	0.952964
C25	C	0.822031	0.941470	0.496507
C26	C	0.537126	0.038493	0.042258
C27	C	0.902496	0.011417	0.538956
C28	C	0.641413	0.997133	0.058181
C29	C	0.945245	0.994988	0.665344
C30	C	0.703081	0.042016	0.159777
C31	C	0.711074	0.537160	0.547595
C32	C	0.984995	0.494878	0.047172
C33	C	0.749580	0.616929	0.632623
C34	C	1.019451	0.406605	0.121051
C35	C	0.784533	0.862022	0.580149
C36	C	0.498626	0.117898	0.125939
C37	C	0.905611	0.912065	0.743276
C38	C	0.660499	0.121216	0.240395
C39	C	0.587509	0.621068	0.738579
C40	C	0.846142	0.368833	0.185203
C41	C	0.545060	0.541294	0.656491
C42	C	0.807417	0.458153	0.114978
C43	C	0.606922	0.495913	0.558725
C44	C	0.876921	0.524100	0.045283
C45	C	0.941782	0.097333	0.454590
C46	C	0.684760	0.911014	0.975686
C47	C	0.564161	0.409070	0.475136
C48	C	0.836021	0.618604	0.974535
H1	H	0.203159	1.048401	0.491620
H2	H	0.271166	0.479300	0.467902
H3	H	0.044041	0.541876	0.996400
H4	H	0.321300	0.642467	0.592623
H5	H	0.103185	0.383761	0.127662
H6	H	0.144049	0.892904	0.622507
H7	H	0.417757	0.148702	0.113886
H8	H	0.456535	0.817173	0.735138
H9	H	0.212058	0.131769	0.302962
H10	H	0.039542	0.632754	0.800810
H11	H	0.305890	0.393088	0.330330
H12	H	0.463455	0.514573	0.670646
H13	H	0.786577	0.949040	0.399356
H14	H	0.971713	-0.025271	0.969773
H15	H	0.784759	1.015554	0.178379
H16	H	0.461726	0.456262	0.901989
H17	H	0.830564	0.647515	0.625234
H18	H	0.525406	0.311018	0.051130
H19	H	0.722124	0.806806	0.548796
H20	H	0.921001	0.133527	0.097878
H21	H	0.941361	0.893645	0.837456
H22	H	0.707330	0.154483	0.320820
H23	H	0.541071	0.654741	0.816711
H24	H	0.792706	0.318037	0.240014
N1	N	0.296498	0.850684	0.686723
N2	N	0.065426	0.140425	0.201282
N3	N	0.180957	0.645440	0.696937
N4	N	0.423650	0.351559	0.200633
N5	N	0.823267	0.850351	0.703486
N6	N	0.559725	0.158636	0.222645
N7	N	0.688254	0.658353	0.725356
N8	N	0.951513	0.346326	0.190892
Ni1	Ni	0.239145	0.750036	0.819147
Ni2	Ni	0.492674	0.262548	0.340794
Ni3	Ni	0.756197	0.763223	0.844612
Ni4	Ni	1.007405	0.243636	0.323406
O1	O	0.134560	0.337489	0.379437
O2	O	0.363645	0.647379	0.865387
O3	O	0.359165	0.172336	0.384617
O4	O	0.112630	0.841313	0.873384
O5	O	0.466096	0.379229	0.477985
O6	O	0.211688	0.640348	0.962976
O7	O	0.037192	0.133800	0.467649
O8	O	0.267451	0.847779	0.970533
O9	O	0.621319	0.356465	0.394278
O10	O	0.889713	0.671055	0.891213
O11	O	0.884405	0.140652	0.364168
O12	O	0.627424	0.857631	0.892755
O13	O	0.981509	0.342003	0.473188
O14	O	0.740213	0.653655	0.989970
O15	O	0.510357	0.151674	0.486505
O16	O	0.783309	0.882576	0.981812
