data_NiPyC2_relax_sc211_ortho_functionalized_NH2_pbesol_relax_PM
_symmetry_space_group_name_H-M	'P1'
_cell_length_a	12.505617
_cell_length_b	12.523412
_cell_length_c	10.276810
_cell_angle_alpha	90.000000
_cell_angle_beta	91.268973
_cell_angle_gamma	90.000000
_symmetry_Int_Tables_number 1

loop_
_symmetry_equiv_pos_as_xyz
'x,y,z'

loop_
_atom_site_label
_atom_site_type_symbol
_atom_site_fract_x
_atom_site_fract_y
_atom_site_fract_z
C1	C	0.276378	0.983754	0.533607
C2	C	0.053561	0.021430	0.005316
C3	C	0.377478	0.029725	0.554662
C4	C	0.156307	0.984687	0.030178
C5	C	0.448426	0.983446	0.644068
C6	C	0.216722	0.027321	0.133551
C7	C	0.180126	0.502149	0.556480
C8	C	0.453883	0.470820	0.024496
C9	C	0.233096	0.589768	0.616401
C10	C	0.480610	0.385185	0.106066
C11	C	0.248687	0.893390	0.606002
C12	C	0.011338	0.101321	0.086994
C13	C	0.416336	0.890035	0.710972
C14	C	0.170007	0.106174	0.210091
C15	C	0.085461	0.623495	0.744401
C16	C	0.313934	0.391169	0.204750
C17	C	0.028886	0.537407	0.689709
C18	C	0.282001	0.478678	0.126451
C19	C	0.077005	0.477366	0.592637
C20	C	0.353511	0.518494	0.037374
C21	C	0.410717	0.123248	0.480238
C22	C	0.198230	0.898376	0.951174
C23	C	0.018938	0.388837	0.526119
C24	C	0.320156	0.609643	0.958611
C25	C	0.814842	0.962900	0.515773
C26	C	0.548075	0.033721	0.034166
C27	C	0.916890	0.001950	0.542817
C28	C	0.654003	1.004503	0.063842
C29	C	0.973434	0.961152	0.651069
C30	C	0.703058	0.045975	0.175197
C31	C	0.684909	0.538941	0.514105
C32	C	0.974134	0.478445	0.032755
C33	C	0.738753	0.611005	0.599074
C34	C	1.009130	0.392338	0.109907
C35	C	0.768511	0.888612	0.601548
C36	C	0.497223	0.108096	0.114649
C37	C	0.924495	0.884161	0.729034
C38	C	0.645813	0.117907	0.254422
C39	C	0.600076	0.602504	0.745845
C40	C	0.850314	0.391301	0.224359
C41	C	0.545441	0.526599	0.669679
C42	C	0.806339	0.472387	0.142638
C43	C	0.587730	0.496066	0.550098
C44	C	0.870796	0.518861	0.049790
C45	C	0.960980	0.086851	0.461084
C46	C	0.719271	0.931800	0.982165
C47	C	0.532331	0.416401	0.466845
C48	C	0.830351	0.609765	0.973150
H1	H	0.218171	1.018016	0.465985
H2	H	0.503600	0.001653	0.951118
H3	H	0.053607	0.987919	0.677022
H4	H	0.296767	0.999006	0.157534
H5	H	0.224332	0.455999	0.486103
H6	H	0.027276	0.512140	0.961353
H7	H	0.086969	0.355699	0.095372
H8	H	0.169708	0.857434	0.596494
H9	H	0.416236	0.135442	0.092295
H10	H	0.213398	0.136906	0.294643
H11	H	0.051085	0.670963	0.821216
H12	H	0.471734	0.492735	0.705187
H13	H	0.202988	0.513602	0.137739
H14	H	0.767257	0.987515	0.431233
H15	H	1.002882	-0.009864	0.927191
H16	H	0.527903	1.016165	0.663447
H17	H	0.783804	1.023504	0.205910
H18	H	0.723512	0.518003	0.423781
H19	H	0.511404	0.499723	0.955232
H20	H	0.558626	0.346815	0.102877
H21	H	0.966980	0.850276	0.812583
H22	H	0.568130	0.629277	0.837748
H23	H	0.950066	0.518785	0.724941
H24	H	0.725420	0.500733	0.159598
H25	H	0.454444	0.773187	0.841180
H26	H	0.555943	0.868098	0.824591
H27	H	0.876707	0.184712	0.129460
H28	H	0.862841	0.081211	0.012500
H29	H	0.375153	0.669711	0.631230
H30	H	0.371941	0.558751	0.525401
H31	H	0.273300	0.288835	0.351150
H32	H	0.175684	0.383347	0.310742
H33	H	0.631742	0.803164	0.639450
H34	H	0.624379	0.888395	0.504067
H35	H	0.647956	0.200648	0.424892
H36	H	0.773406	0.142505	0.379036
H37	H	0.880908	0.688609	0.634620
H38	H	0.873648	0.612307	0.492201
H39	H	0.837729	0.317419	0.400399
H40	H	0.716244	0.372294	0.339840
N1	N	0.315248	0.847405	0.693302
N2	N	0.071111	0.144251	0.187974
N3	N	0.184477	0.650377	0.709182
N4	N	0.413980	0.346480	0.195142
N5	N	0.824174	0.848458	0.707441
N6	N	0.543692	0.150377	0.221588
N7	N	0.693769	0.646413	0.712186
N8	N	0.950904	0.349555	0.205211
N9	N	0.482863	0.838183	0.791350
N10	N	0.910783	0.133003	0.066143
N11	N	0.332417	0.613170	0.581308
N12	N	0.248203	0.349942	0.291090
N13	N	0.667523	0.856951	0.579898
N14	N	0.691405	0.155023	0.363038
N15	N	0.836225	0.645600	0.569134
N16	N	0.796465	0.354525	0.325252
Ni1	Ni	0.255951	0.751627	0.827276
Ni2	Ni	0.472775	0.257082	0.332881
Ni3	Ni	0.762955	0.750108	0.836573
Ni4	Ni	1.014472	0.236522	0.323868
O1	O	0.072034	0.343407	0.432835
O2	O	0.378755	0.651002	0.869514
O3	O	0.351434	0.165016	0.388694
O4	O	0.138860	0.850337	0.865089
O5	O	0.434117	0.395634	0.475824
O6	O	0.228036	0.652291	0.972056
O7	O	0.056050	0.121174	0.468276
O8	O	0.294214	0.863782	0.962472
O9	O	0.586252	0.362958	0.381404
O10	O	0.886091	0.656734	0.885285
O11	O	0.899699	0.134850	0.374479
O12	O	0.671326	0.860756	0.908970
O13	O	0.926429	0.361926	0.553947
O14	O	0.736714	0.649354	0.986995
O15	O	0.502660	0.166821	0.495803
O16	O	0.818830	0.939818	0.987041
