data_NiPyC2_relax_sc211_meta_functionalized_C-C_vdw-df2_relax_PM
_symmetry_space_group_name_H-M	'P1'
_cell_length_a	12.505617
_cell_length_b	12.523412
_cell_length_c	10.276810
_cell_angle_alpha	90.000000
_cell_angle_beta	91.268973
_cell_angle_gamma	90.000000
_symmetry_Int_Tables_number 1

loop_
_symmetry_equiv_pos_as_xyz
'x,y,z'

loop_
_atom_site_label
_atom_site_type_symbol
_atom_site_fract_x
_atom_site_fract_y
_atom_site_fract_z
C1	C	0.281825	0.972407	0.533258
C2	C	0.050159	0.046021	0.010978
C3	C	0.386292	0.016188	0.549206
C4	C	0.152410	1.004502	0.033241
C5	C	0.453862	0.971498	0.645258
C6	C	0.217431	0.048633	0.135571
C7	C	0.214424	0.548043	0.521513
C8	C	0.463964	0.486038	0.040669
C9	C	0.244555	0.626173	0.615746
C10	C	0.500376	0.400798	0.116928
C11	C	0.250523	0.890480	0.619841
C12	C	0.011240	0.124652	0.093778
C13	C	0.417744	0.888115	0.723911
C14	C	0.173527	0.133763	0.210485
C15	C	0.069664	0.645817	0.685914
C16	C	0.331241	0.375544	0.205828
C17	C	0.034557	0.564987	0.600713
C18	C	0.288588	0.464807	0.134925
C19	C	0.106836	0.509700	0.523125
C20	C	0.357419	0.518428	0.047634
C21	C	0.426246	0.104039	0.469296
C22	C	0.189355	0.911997	0.958974
C23	C	0.069298	0.411558	0.456663
C24	C	0.317451	0.608082	0.969633
C25	C	0.784158	0.964949	0.532625
C26	C	0.552349	0.046412	0.002449
C27	C	0.884711	0.015341	0.557321
C28	C	0.653342	1.002514	0.027070
C29	C	0.950394	0.974133	0.657340
C30	C	0.719169	0.047561	0.128206
C31	C	0.705917	0.526652	0.530718
C32	C	0.945557	0.450821	0.013978
C33	C	0.739544	0.613564	0.605592
C34	C	0.981434	0.370081	0.101635
C35	C	0.754832	0.878438	0.613617
C36	C	0.515383	0.128648	0.081798
C37	C	0.915500	0.888131	0.732402
C38	C	0.677349	0.135437	0.200074
C39	C	0.585839	0.606247	0.732456
C40	C	0.830052	0.386508	0.228523
C41	C	0.546957	0.515414	0.663190
C42	C	0.790078	0.468561	0.148917
C43	C	0.609079	0.477110	0.557822
C44	C	0.848034	0.503211	0.042005
C45	C	0.921434	0.106590	0.480753
C46	C	0.688662	0.907291	0.956429
C47	C	0.570283	0.389102	0.476215
C48	C	0.810483	0.594960	0.965591
C49	C	0.201244	-0.008165	0.442096
C50	C	0.116962	-0.018858	0.381368
C51	C	0.310966	0.996713	0.175634
C52	C	0.382616	0.936000	0.209103
C53	C	0.297863	0.528216	0.438058
C54	C	0.382335	0.540309	0.382508
C55	C	0.189774	0.507046	0.167537
C56	C	0.109030	0.550834	0.204988
C57	C	0.706373	-0.015211	0.438103
C58	C	0.624248	-0.023145	0.372465
C59	C	0.811536	0.994642	0.170207
C60	C	0.883295	0.934610	0.205101
C61	C	0.455465	0.463335	0.704676
C62	C	0.378880	0.413893	0.744296
C63	C	0.016804	0.469483	0.914690
C64	C	0.096676	0.464804	0.848813
H1	H	0.500172	0.014500	0.927703
H2	H	0.027390	1.008707	0.678530
H3	H	0.326455	0.651614	0.623589
H4	H	0.057350	0.333077	0.087020
H5	H	0.170771	0.859170	0.613506
H6	H	0.436400	0.161352	0.069420
H7	H	0.466837	0.853057	0.798958
H8	H	0.219134	0.169622	0.288105
H9	H	0.016785	0.684685	0.751492
H10	H	0.283371	0.334114	0.274746
H11	H	0.998534	0.014609	0.935429
H12	H	0.533710	1.001105	0.660471
H13	H	0.755497	0.497992	0.454190
H14	H	0.519301	0.527436	0.980340
H15	H	0.813999	0.653685	0.589684
H16	H	0.582079	0.374576	0.116176
H17	H	0.678326	0.840637	0.599771
H18	H	0.931542	0.155503	0.082289
H19	H	0.962349	0.856679	0.811807
H20	H	0.723016	0.171271	0.277765
H21	H	0.542209	0.639678	0.811348
H22	H	0.788543	0.358907	0.311987
H23	H	0.952425	0.540651	0.602781
H24	H	0.715925	0.506307	0.172856
H25	H	0.046419	-0.016170	0.323069
H26	H	0.441417	0.876998	0.230134
H27	H	0.452211	0.544440	0.326011
H28	H	0.037192	0.588967	0.232573
H29	H	0.556658	-0.019797	0.309229
H30	H	0.943361	0.876900	0.226092
H31	H	0.314319	0.365601	0.774558
H32	H	0.164894	0.467101	0.789779
N1	N	0.316832	0.850096	0.709991
N2	N	0.071126	0.164357	0.194707
N3	N	0.175220	0.670184	0.696860
N4	N	0.434315	0.346995	0.197463
N5	N	0.818717	0.842248	0.709147
N6	N	0.575912	0.168664	0.181825
N7	N	0.679765	0.651651	0.704029
N8	N	0.925624	0.340009	0.204687
Ni1	Ni	0.247676	0.753461	0.836706
Ni2	Ni	0.503086	0.246794	0.331334
Ni3	Ni	0.747628	0.747818	0.836378
Ni4	Ni	0.997543	0.247472	0.340345
O1	O	0.129359	0.352141	0.386909
O2	O	0.374879	0.654429	0.883317
O3	O	0.370857	0.151435	0.379365
O4	O	0.127847	0.864190	0.875012
O5	O	0.474661	0.352391	0.484190
O6	O	0.221416	0.644845	0.979665
O7	O	0.015490	0.147879	0.499558
O8	O	0.283773	0.872119	0.973403
O9	O	0.627806	0.346931	0.386749
O10	O	0.869887	0.640813	0.880977
O11	O	0.866066	0.148233	0.386808
O12	O	0.627361	0.858729	0.872966
O13	O	0.972050	0.379317	0.468469
O14	O	0.716590	0.635232	0.980268
O15	O	0.523727	0.137105	0.483066
O16	O	0.782184	0.865525	0.973123
