data_NiPyC2_relax_sc211_ortho_functionalized_CH3_pbesol_relax_PM
_symmetry_space_group_name_H-M	'P1'
_cell_length_a	12.505617
_cell_length_b	12.523412
_cell_length_c	10.276810
_cell_angle_alpha	90.000000
_cell_angle_beta	91.268973
_cell_angle_gamma	90.000000
_symmetry_Int_Tables_number 1

loop_
_symmetry_equiv_pos_as_xyz
'x,y,z'

loop_
_atom_site_label
_atom_site_type_symbol
_atom_site_fract_x
_atom_site_fract_y
_atom_site_fract_z
C1	C	0.329728	0.983722	0.541290
C2	C	0.026257	0.020691	0.021862
C3	C	0.430079	0.014914	0.588102
C4	C	0.130662	0.983560	0.042289
C5	C	0.473224	0.965666	0.698786
C6	C	0.195574	0.028786	0.139450
C7	C	0.233185	0.558351	0.502723
C8	C	0.470134	0.482078	0.012832
C9	C	0.259905	0.632042	0.601262
C10	C	0.512683	0.396350	0.087851
C11	C	0.271047	0.902626	0.605919
C12	C	-0.010151	0.102249	0.102958
C13	C	0.412973	0.885927	0.758922
C14	C	0.156824	0.114294	0.214654
C15	C	0.101291	0.598237	0.712603
C16	C	0.366607	0.411126	0.227514
C17	C	0.073913	0.518301	0.619393
C18	C	0.321118	0.495233	0.155355
C19	C	0.139034	0.499692	0.514181
C20	C	0.374101	0.530328	0.045410
C21	C	0.494270	0.096496	0.518156
C22	C	0.174690	0.898177	0.962419
C23	C	0.106299	0.418779	0.413900
C24	C	0.326314	0.616398	0.966411
C25	C	0.785350	0.955397	0.503483
C26	C	0.542513	0.015695	0.023296
C27	C	0.885239	-0.001453	0.532996
C28	C	0.644046	0.975872	0.053232
C29	C	0.941679	0.966300	0.644683
C30	C	0.702478	0.020834	0.156947
C31	C	0.657202	0.535032	0.533052
C32	C	0.905389	0.454726	0.042292
C33	C	0.721286	0.606823	0.606861
C34	C	0.953649	0.370133	0.110794
C35	C	0.738871	0.879803	0.587558
C36	C	0.499712	0.102913	0.092644
C37	C	0.893699	0.890023	0.723605
C38	C	0.654075	0.102466	0.228598
C39	C	0.582150	0.619345	0.757728
C40	C	0.834752	0.387036	0.284859
C41	C	0.519221	0.543651	0.691343
C42	C	0.782637	0.472058	0.218156
C43	C	0.560078	0.498808	0.579028
C44	C	0.819058	0.506415	0.098381
C45	C	0.928247	0.081676	0.449972
C46	C	0.687044	0.889196	0.972974
C47	C	0.501555	0.411286	0.510093
C48	C	0.762322	0.596223	1.030367
C49	C	0.167882	0.868416	0.552497
C50	C	0.222754	0.171515	0.309264
C51	C	0.029265	0.621824	0.817081
C52	C	0.612103	0.344761	0.051343
C53	C	0.633794	0.836670	0.553914
C54	C	0.400461	0.152937	0.047529
C55	C	0.827858	0.636325	0.564281
C56	C	0.803161	0.352157	0.413627
H1	H	0.293332	1.019669	0.455250
H2	H	0.493584	-0.016956	0.944763
H3	H	0.019526	0.998347	0.671534
H4	H	0.276399	1.000624	0.158300
H5	H	0.286538	0.547598	0.422141
H6	H	-0.064304	0.477854	0.948648
H7	H	0.334275	0.676894	0.599673
H8	H	0.022298	0.327776	0.073468
H9	H	0.444718	0.843995	0.843704
H10	H	0.328838	0.382471	0.315184
H11	H	0.441883	0.521836	0.728674
H12	H	0.246582	0.529858	0.186290
H13	H	0.739228	0.979771	0.418016
H14	H	0.972410	-0.013035	0.948561
H15	H	0.551710	0.985785	0.738210
H16	H	0.782289	0.994474	0.185389
H17	H	0.687881	0.507539	0.441798
H18	H	0.515954	0.507734	0.930429
H19	H	0.908533	0.132824	0.095298
H20	H	0.935089	0.860560	0.810554
H21	H	0.695610	0.137467	0.312534
H22	H	0.554212	0.657849	0.845339
H23	H	1.000181	0.474405	0.632335
H24	H	0.712925	0.509223	0.259937
H25	H	0.117165	0.834216	0.626208
H26	H	0.129409	0.933398	0.498747
H27	H	0.181772	0.804987	0.480056
H28	H	0.217485	0.257686	0.289876
H29	H	0.191434	0.162682	0.407771
H30	H	0.304870	0.144013	0.309949
H31	H	0.021205	0.707847	0.832622
H32	H	0.065044	0.594103	0.910103
H33	H	0.952171	0.584145	0.801034
H34	H	0.659217	0.319852	0.136862
H35	H	0.657590	0.395666	-0.012666
H36	H	0.593392	0.270858	0.997327
H37	H	0.589973	0.812082	0.639031
H38	H	0.589484	0.893747	0.493893
H39	H	0.643416	0.765084	0.492730
H40	H	0.355614	0.187602	0.126692
H41	H	0.352879	0.097615	-0.011200
H42	H	0.420573	0.220358	0.983508
H43	H	0.878145	0.667472	0.642968
H44	H	0.865704	0.569171	0.515775
H45	H	0.819841	0.698696	0.489098
H46	H	0.835141	0.274446	0.441339
H47	H	0.831270	0.410557	0.486590
H48	H	0.715778	0.350687	0.421203
N1	N	0.315473	0.857002	0.715009
N2	N	0.053239	0.145551	0.195975
N3	N	0.195874	0.651654	0.701667
N4	N	0.457850	0.362965	0.193925
N5	N	0.795820	0.850109	0.696611
N6	N	0.556395	0.141191	0.197936
N7	N	0.679516	0.647257	0.717581
N8	N	0.918566	0.337951	0.226985
Ni1	Ni	0.245114	0.755831	0.835139
Ni2	Ni	0.504813	0.250630	0.316045
Ni3	Ni	0.750009	0.750306	0.828647
Ni4	Ni	0.993305	0.232879	0.332499
O1	O	0.135497	0.427842	0.299383
O2	O	0.376028	0.665851	0.876478
O3	O	0.442403	0.154134	0.431736
O4	O	0.121587	0.852882	0.868719
O5	O	0.405408	0.393608	0.527845
O6	O	0.229605	0.647609	0.980715
O7	O	0.019706	0.124969	0.472079
O8	O	0.270199	0.863104	0.979661
O9	O	0.559104	0.354294	0.430933
O10	O	0.811063	0.639580	0.932905
O11	O	0.875324	0.120610	0.352312
O12	O	0.626622	0.836233	0.892496
O13	O	1.046836	0.340447	0.451822
O14	O	0.672704	0.626534	1.065446
O15	O	0.591807	0.107157	0.539541
O16	O	0.785301	0.861411	0.973557
