data_NiPyC2_relax_sc211_meta_functionalized_CH3_vdw-df2_relax_PM
_symmetry_space_group_name_H-M	'P1'
_cell_length_a	12.505617
_cell_length_b	12.523412
_cell_length_c	10.276810
_cell_angle_alpha	90.000000
_cell_angle_beta	91.268973
_cell_angle_gamma	90.000000
_symmetry_Int_Tables_number 1

loop_
_symmetry_equiv_pos_as_xyz
'x,y,z'

loop_
_atom_site_label
_atom_site_type_symbol
_atom_site_fract_x
_atom_site_fract_y
_atom_site_fract_z
C1	C	0.274709	0.954599	0.531323
C2	C	0.027156	-0.007475	0.043732
C3	C	0.381189	-0.006249	0.547359
C4	C	0.136257	0.967964	0.048660
C5	C	0.451954	0.940293	0.632417
C6	C	0.208116	0.032575	0.122936
C7	C	0.200552	0.520700	0.521530
C8	C	0.441531	0.433634	0.018974
C9	C	0.237731	0.603624	0.600780
C10	C	0.484495	0.367241	0.118447
C11	C	0.243317	0.873338	0.618767
C12	C	-0.009573	0.083107	0.108530
C13	C	0.413594	0.860643	0.715020
C14	C	0.164122	0.126017	0.180473
C15	C	0.086391	0.590972	0.730077
C16	C	0.339627	0.393456	0.253318
C17	C	0.046650	0.499306	0.662044
C18	C	0.296461	0.469748	0.167267
C19	C	0.104765	0.468855	0.550249
C20	C	0.349298	0.492680	0.051853
C21	C	0.421170	0.091391	0.483676
C22	C	0.175250	0.876016	0.974355
C23	C	0.066841	0.385109	0.460073
C24	C	0.308809	0.580074	0.968907
C25	C	0.799128	0.971576	0.511946
C26	C	0.556839	0.074680	0.010214
C27	C	0.895703	0.022664	0.543655
C28	C	0.647557	1.013130	0.047370
C29	C	0.954092	0.993896	0.658947
C30	C	0.698749	0.032136	0.167616
C31	C	0.722214	0.540689	0.538688
C32	C	0.970874	0.506956	0.046380
C33	C	0.752400	0.625108	0.624255
C34	C	1.006025	0.414911	0.111602
C35	C	0.759105	0.893376	0.594049
C36	C	0.513385	0.139146	0.109030
C37	C	0.910756	0.907154	0.730858
C38	C	0.653871	0.104632	0.254936
C39	C	0.582053	0.638142	0.710869
C40	C	0.833455	0.379770	0.184063
C41	C	0.545062	0.555065	0.630468
C42	C	0.791401	0.475240	0.126896
C43	C	0.615842	0.501598	0.549414
C44	C	0.863016	0.536103	0.051039
C45	C	0.933429	0.105459	0.454224
C46	C	0.687772	0.926555	0.964734
C47	C	0.575297	0.404279	0.483358
C48	C	0.824793	0.628801	0.974931
C49	C	0.196458	-0.016507	0.430339
C50	C	0.320055	1.004842	0.150107
C51	C	0.956703	0.441590	0.718937
C52	C	0.493745	0.433638	0.892702
C53	C	0.048233	0.049195	0.714191
C54	C	0.505289	1.078026	0.880899
C55	C	0.802066	0.507831	0.445832
C56	C	0.681981	0.507927	0.155274
H1	H	0.247052	0.497852	0.439973
H2	H	0.028265	0.554048	0.996077
H3	H	0.312485	0.643307	0.584575
H4	H	0.088213	0.389922	0.111806
H5	H	0.162378	0.844350	0.615744
H6	H	0.439274	0.179163	0.089314
H7	H	0.462585	0.826048	0.790580
H8	H	0.214534	0.179288	0.236528
H9	H	0.042824	0.624286	0.809064
H10	H	0.301165	0.369729	0.340528
H11	H	0.463532	0.529882	0.637351
H12	H	0.223840	0.510179	0.191584
H13	H	0.754095	0.991497	0.425825
H14	H	0.969868	-0.057214	0.994280
H15	H	0.534223	0.963331	0.641480
H16	H	0.771181	0.991007	0.194869
H17	H	0.833142	0.654580	0.624883
H18	H	0.560374	0.330138	0.104314
H19	H	0.683503	0.854771	0.575500
H20	H	0.907178	0.104221	0.108811
H21	H	0.953665	0.875007	0.813196
H22	H	0.690606	0.123996	0.346791
H23	H	0.532077	0.674504	0.781585
H24	H	0.782750	0.328446	0.239666
H25	H	0.116387	0.964706	0.459100
H26	H	0.204343	0.065516	0.401797
H27	H	0.212088	0.934757	0.344979
H28	H	0.356438	0.059699	0.217710
H29	H	0.326477	0.924304	0.188540
H30	H	0.363037	0.001095	0.059786
H31	H	0.903984	0.495956	0.767958
H32	H	0.989519	0.388394	0.794501
H33	H	0.914529	0.391904	0.649695
H34	H	0.547593	0.366905	0.883307
H35	H	0.540154	0.506834	0.884267
H36	H	0.435299	0.435365	0.813867
H37	H	0.097539	0.995423	0.771205
H38	H	0.020035	0.110610	0.781202
H39	H	0.093287	1.090516	0.641813
H40	H	0.456776	0.148665	0.867843
H41	H	0.452037	1.009272	0.871904
H42	H	0.562851	0.070450	0.805009
H43	H	0.881722	0.526065	0.480830
H44	H	0.793612	0.425462	0.418590
H45	H	0.789592	0.555332	0.358025
H46	H	0.646174	0.455508	0.224382
H47	H	0.680810	0.589359	0.191432
H48	H	0.635094	0.511919	0.065479
N1	N	0.309993	0.830224	0.707987
N2	N	0.058745	0.147566	0.176283
N3	N	0.179784	0.637818	0.702276
N4	N	0.434236	0.346339	0.229441
N5	N	0.815380	0.862855	0.701582
N6	N	0.559999	0.153395	0.226607
N7	N	0.685056	0.670537	0.707511
N8	N	0.937441	0.353214	0.179154
Ni1	Ni	0.246291	0.733797	0.836712
Ni2	Ni	0.496926	0.247161	0.364469
Ni3	Ni	0.747985	0.771827	0.836252
Ni4	Ni	0.997464	0.247203	0.307423
O1	O	0.126273	0.346723	0.370201
O2	O	0.366809	0.627446	0.883632
O3	O	0.363479	0.153854	0.411033
O4	O	0.115028	0.825779	0.890870
O5	O	0.478735	0.371189	0.500848
O6	O	0.213560	0.616560	0.980293
O7	O	0.028981	0.142540	0.458316
O8	O	0.272500	0.841583	0.981764
O9	O	0.629993	0.345579	0.406042
O10	O	0.883667	0.677764	0.892402
O11	O	0.872525	0.145360	0.363111
O12	O	0.628526	0.879464	0.877188
O13	O	0.971370	0.347207	0.460814
O14	O	0.727998	0.664662	0.980938
O15	O	0.519341	0.121954	0.499542
O16	O	0.783142	0.889944	0.979720
