data_NiPyC2_relax_sc211_meta_functionalized_OH_vdw-df2_relax_PM
_symmetry_space_group_name_H-M	'P1'
_cell_length_a	12.505617
_cell_length_b	12.523412
_cell_length_c	10.276810
_cell_angle_alpha	90.000000
_cell_angle_beta	91.268973
_cell_angle_gamma	90.000000
_symmetry_Int_Tables_number 1

loop_
_symmetry_equiv_pos_as_xyz
'x,y,z'

loop_
_atom_site_label
_atom_site_type_symbol
_atom_site_fract_x
_atom_site_fract_y
_atom_site_fract_z
C1	C	0.289624	0.978269	0.531599
C2	C	0.049401	0.031711	0.024823
C3	C	0.395327	0.012633	0.549750
C4	C	0.150484	0.989278	0.052659
C5	C	0.457831	0.963063	0.650866
C6	C	0.211488	0.034324	0.157907
C7	C	0.207578	0.533977	0.526105
C8	C	0.458431	0.477172	0.032138
C9	C	0.241450	0.618863	0.608381
C10	C	0.498904	0.393950	0.108734
C11	C	0.248586	0.896925	0.608778
C12	C	0.010219	0.115626	0.099362
C13	C	0.410005	0.881560	0.726518
C14	C	0.164734	0.118505	0.231275
C15	C	0.074258	0.627901	0.705458
C16	C	0.335297	0.372633	0.212329
C17	C	0.034683	0.545646	0.625337
C18	C	0.289341	0.458771	0.140357
C19	C	0.100306	0.496818	0.534670
C20	C	0.352681	0.510956	0.045525
C21	C	0.437831	0.097105	0.467053
C22	C	0.190519	0.901014	0.974086
C23	C	0.061308	0.404135	0.460704
C24	C	0.311485	0.599061	0.965535
C25	C	0.792857	0.965854	0.529244
C26	C	0.544174	0.028807	0.022956
C27	C	0.900179	0.002804	0.544462
C28	C	0.648497	0.991864	0.043813
C29	C	0.963107	0.958191	0.644620
C30	C	0.712383	0.042054	0.143289
C31	C	0.704910	0.521602	0.535843
C32	C	0.951925	0.464346	0.028023
C33	C	0.743929	0.607525	0.609240
C34	C	0.985168	0.378054	0.108468
C35	C	0.758438	0.880957	0.608772
C36	C	0.504824	0.112302	0.098007
C37	C	0.921474	0.878652	0.724673
C38	C	0.666740	0.128080	0.214824
C39	C	0.584922	0.619338	0.723944
C40	C	0.825715	0.381711	0.222184
C41	C	0.539840	0.531690	0.653843
C42	C	0.785535	0.464123	0.142981
C43	C	0.601836	0.482311	0.555375
C44	C	0.847749	0.507310	0.044763
C45	C	0.941754	0.090533	0.466258
C46	C	0.688206	0.902936	0.966631
C47	C	0.561501	0.394369	0.473750
C48	C	0.808094	0.598098	0.967831
H1	H	0.237796	1.014623	0.459780
H2	H	0.491365	-0.008218	0.952681
H3	H	0.042568	0.987235	0.664160
H4	H	0.321194	0.650558	0.601236
H5	H	0.061985	0.341678	0.094600
H6	H	0.168154	0.868048	0.596441
H7	H	0.425014	0.142380	0.084655
H8	H	0.454284	0.843791	0.804727
H9	H	0.206696	0.152208	0.313827
H10	H	0.027055	0.663835	0.779128
H11	H	0.289918	0.331826	0.284684
H12	H	1.000109	-0.000164	0.947345
H13	H	0.755459	0.485477	0.465075
H14	H	0.510843	0.516475	0.965999
H15	H	0.822776	0.639445	0.597036
H16	H	0.579874	0.366265	0.102413
H17	H	0.679884	0.847330	0.594038
H18	H	0.933275	0.150469	0.079682
H19	H	0.966034	0.845271	0.804940
H20	H	0.711993	0.166786	0.291177
H21	H	0.540931	0.657702	0.799657
H22	H	0.781428	0.349750	0.301237
H23	H	0.954663	0.517624	0.638818
H24	H	0.707748	0.496181	0.161582
H25	H	0.586570	0.948944	0.749637
H26	H	0.337540	0.042541	0.260095
H27	H	0.348301	0.502293	0.471311
H28	H	0.164134	0.447786	0.237997
H29	H	0.652037	0.996463	0.468048
H30	H	0.837584	0.050235	0.247026
H31	H	0.414564	0.542283	0.752567
H32	H	0.089347	0.480999	0.958582
N1	N	0.308960	0.850616	0.704777
N2	N	0.066906	0.155524	0.202760
N3	N	0.176990	0.661634	0.696723
N4	N	0.436889	0.343922	0.197060
N5	N	0.820471	0.841491	0.704601
N6	N	0.565551	0.158117	0.194196
N7	N	0.683627	0.654666	0.701527
N8	N	0.924476	0.340159	0.203509
Ni1	Ni	0.246247	0.752597	0.836304
Ni2	Ni	0.498811	0.247452	0.332429
Ni3	Ni	0.748327	0.752119	0.836279
Ni4	Ni	0.997701	0.247015	0.339651
O1	O	0.115410	0.359684	0.368152
O2	O	0.368696	0.640375	0.873215
O3	O	0.378354	0.139712	0.373961
O4	O	0.128001	0.854103	0.889074
O5	O	0.464836	0.359937	0.476578
O6	O	0.218728	0.640134	0.978660
O7	O	0.035274	0.129604	0.485030
O8	O	0.286430	0.865173	0.980809
O9	O	0.621893	0.348043	0.389543
O10	O	0.865812	0.646832	0.883428
O11	O	0.884927	0.135063	0.372536
O12	O	0.628298	0.860531	0.873462
O13	O	0.970703	0.360499	0.483602
O14	O	0.712682	0.634633	0.980171
O15	O	0.532937	0.133787	0.476869
O16	O	0.780587	0.860906	0.981492
O17	O	0.558668	-0.008172	0.675196
O18	O	0.307815	0.997401	0.188948
O19	O	0.274479	0.488437	0.444224
O20	O	0.189971	0.489545	0.163358
O21	O	0.725564	0.010949	0.444050
O22	O	0.809868	1.008511	0.171704
O23	O	0.442228	0.496954	0.682112
O24	O	0.016430	0.504361	0.939601
