data_NiPyC2_relax_sc211_ortho_functionalized_O-OH_pbesol_relax_PM
_symmetry_space_group_name_H-M	'P1'
_cell_length_a	12.505617
_cell_length_b	12.523412
_cell_length_c	10.276810
_cell_angle_alpha	90.000000
_cell_angle_beta	91.268973
_cell_angle_gamma	90.000000
_symmetry_Int_Tables_number 1

loop_
_symmetry_equiv_pos_as_xyz
'x,y,z'

loop_
_atom_site_label
_atom_site_type_symbol
_atom_site_fract_x
_atom_site_fract_y
_atom_site_fract_z
C1	C	0.264470	0.959885	0.509333
C2	C	0.073876	0.061634	-0.009840
C3	C	0.364554	0.003406	0.533657
C4	C	0.173448	1.020578	0.024429
C5	C	0.431230	0.960099	0.631229
C6	C	0.214041	0.033236	0.150679
C7	C	0.249295	0.504387	0.561315
C8	C	0.452985	0.480386	0.022858
C9	C	0.271050	0.593716	0.640177
C10	C	0.489743	0.395278	0.100741
C11	C	0.228765	0.869586	0.585867
C12	C	0.017552	0.115068	0.087333
C13	C	0.393048	0.875150	0.706039
C14	C	0.155394	0.095758	0.236418
C15	C	0.108894	0.574861	0.752077
C16	C	0.345879	0.405492	0.234827
C17	C	0.082945	0.483555	0.673456
C18	C	0.304481	0.493830	0.166012
C19	C	0.151532	0.452487	0.576583
C20	C	0.359788	0.531882	0.058570
C21	C	0.404861	0.094657	0.459022
C22	C	0.236973	0.967769	0.920958
C23	C	0.110297	0.370946	0.487445
C24	C	0.319265	0.623239	0.982195
C25	C	0.794747	0.999344	0.527339
C26	C	0.498980	0.020304	0.010803
C27	C	0.897002	0.033463	0.560585
C28	C	0.597831	0.970409	0.033729
C29	C	0.949773	0.986636	0.667506
C30	C	0.661095	0.004064	0.137829
C31	C	0.715229	0.510711	0.560776
C32	C	0.921058	0.474525	0.036224
C33	C	0.748438	0.585801	0.652547
C34	C	0.983401	0.398056	0.104746
C35	C	0.748015	0.918880	0.602215
C36	C	0.467626	0.101949	0.095896
C37	C	0.894002	0.910829	0.740414
C38	C	0.623638	0.087953	0.214231
C39	C	0.584070	0.596581	0.746681
C40	C	0.877577	0.408831	0.284060
C41	C	0.542923	0.518622	0.660870
C42	C	0.813490	0.487565	0.226257
C43	C	0.608696	0.478742	0.563883
C44	C	0.835229	0.518674	0.100046
C45	C	0.946597	0.114306	0.478535
C46	C	0.646688	0.886913	0.954509
C47	C	0.570965	0.409368	0.454944
C48	C	0.766329	0.600771	1.034765
H1	H	0.208156	0.989184	0.436106
H2	H	0.446169	-0.001602	0.930102
H3	H	0.031748	1.006086	0.694521
H4	H	0.290459	1.000444	0.182584
H5	H	0.306556	0.479909	0.489300
H6	H	-0.054506	0.500351	0.940361
H7	H	0.344628	0.639191	0.630830
H8	H	0.391045	0.142134	0.082984
H9	H	0.441294	0.842669	0.786619
H10	H	0.190431	0.118702	0.329743
H11	H	0.302220	0.371893	0.315676
H12	H	0.460277	0.493476	0.668536
H13	H	0.230529	0.530041	0.196989
H14	H	0.750453	1.027772	0.442940
H15	H	1.037032	0.051601	0.894229
H16	H	0.509474	0.993507	0.653046
H17	H	0.739608	0.970475	0.158782
H18	H	0.770741	0.482423	0.488764
H19	H	0.501848	0.505897	0.942715
H20	H	0.931739	0.875562	0.826491
H21	H	0.534478	0.635417	0.818351
H22	H	0.860246	0.378310	0.380046
H23	H	1.007235	0.444102	0.689830
H24	H	0.747307	0.520426	0.279019
H25	H	-0.022906	0.641485	0.497345
H26	H	0.878168	0.154900	0.227487
H27	H	0.060673	0.734154	0.848607
H28	H	0.632517	0.353498	0.241485
H29	H	0.539975	0.802134	0.590760
H30	H	0.762168	0.209475	0.406630
H31	H	1.079997	0.702842	0.492761
H32	H	0.191639	0.287891	0.043410
N1	N	0.295948	0.833106	0.688645
N2	N	0.058214	0.137148	0.206936
N3	N	0.204101	0.629964	0.728719
N4	N	0.437766	0.355581	0.204523
N5	N	0.794333	0.876026	0.709355
N6	N	0.527916	0.135714	0.198906
N7	N	0.686098	0.630681	0.741669
N8	N	0.962532	0.363814	0.226779
Ni1	Ni	0.238148	0.754930	0.836634
Ni2	Ni	0.478260	0.238202	0.331849
Ni3	Ni	0.745046	0.755339	0.834954
Ni4	Ni	1.025546	0.249745	0.339989
O1	O	0.162202	0.325780	0.397012
O2	O	0.372462	0.669205	0.892496
O3	O	0.347452	0.152815	0.381560
O4	O	0.244671	1.017464	0.817432
O5	O	0.493722	0.343558	0.468889
O6	O	0.224852	0.659965	0.996732
O7	O	0.045992	0.131992	0.477774
O8	O	0.280237	0.876564	0.949643
O9	O	0.621164	0.422098	0.350400
O10	O	0.817251	0.666983	0.962267
O11	O	0.888681	0.172841	0.398230
O12	O	0.598930	0.825679	0.872885
O13	O	1.011559	0.342897	0.493356
O14	O	0.668382	0.602830	1.051407
O15	O	0.503640	0.121093	0.466062
O16	O	0.748365	0.871143	0.966657
O17	O	0.141310	0.826840	0.562031
O18	O	0.046795	0.637479	0.456867
O19	O	0.918912	0.144448	0.046177
O20	O	0.845329	0.173570	0.140526
O21	O	0.046118	0.605554	0.836688
O22	O	0.102527	0.801979	0.835621
O23	O	0.583830	0.355281	0.060137
O24	O	0.649636	0.310468	0.155647
O25	O	0.650512	0.893646	0.555061
O26	O	0.617803	0.789377	0.595411
O27	O	0.698664	0.114454	0.302014
O28	O	0.685209	0.210157	0.371822
O29	O	0.851627	0.619256	0.645369
O30	O	0.877671	0.698836	0.727889
O31	O	0.063401	0.361085	0.033036
O32	O	0.152065	0.320750	0.114460
