data_NiPyC2_relax_sc211_ortho_functionalized_F_pbesol_relax_PM
_symmetry_space_group_name_H-M	'P1'
_cell_length_a	12.505617
_cell_length_b	12.523412
_cell_length_c	10.276810
_cell_angle_alpha	90.000000
_cell_angle_beta	91.268973
_cell_angle_gamma	90.000000
_symmetry_Int_Tables_number 1

loop_
_symmetry_equiv_pos_as_xyz
'x,y,z'

loop_
_atom_site_label
_atom_site_type_symbol
_atom_site_fract_x
_atom_site_fract_y
_atom_site_fract_z
C1	C	0.315881	0.967488	0.524082
C2	C	0.053137	0.051450	0.003033
C3	C	0.416479	0.008145	0.557143
C4	C	0.145070	0.993448	0.039091
C5	C	0.472860	0.964411	0.663496
C6	C	0.195441	0.015428	0.158033
C7	C	0.232269	0.494134	0.573041
C8	C	0.434417	0.475069	0.036685
C9	C	0.265642	0.579467	0.652877
C10	C	0.476546	0.390011	0.110740
C11	C	0.274088	0.885894	0.601334
C12	C	0.013624	0.128357	0.089073
C13	C	0.423783	0.883390	0.736100
C14	C	0.151461	0.096031	0.235138
C15	C	0.092409	0.638528	0.674536
C16	C	0.324058	0.375729	0.231567
C17	C	0.050507	0.552595	0.601773
C18	C	0.274182	0.458846	0.160686
C19	C	0.122284	0.479806	0.550649
C20	C	0.331395	0.509917	0.063135
C21	C	0.458120	0.097798	0.480043
C22	C	0.188596	0.908112	0.957528
C23	C	0.079198	0.390340	0.473239
C24	C	0.286229	0.600655	0.987511
C25	C	0.784423	0.971944	0.519410
C26	C	0.519949	-0.010352	0.070020
C27	C	0.884570	0.017277	0.548865
C28	C	0.629981	0.978648	0.050771
C29	C	0.942093	0.981613	0.657908
C30	C	0.700037	0.053519	0.104705
C31	C	0.692461	0.545227	0.508961
C32	C	0.963828	0.468876	0.018111
C33	C	0.731366	0.625539	0.592503
C34	C	1.001896	0.387536	0.101602
C35	C	0.745485	0.891032	0.600777
C36	C	0.484955	0.073125	0.150085
C37	C	0.894562	0.903009	0.735771
C38	C	0.656285	0.137972	0.176589
C39	C	0.589901	0.602137	0.729281
C40	C	0.855648	0.404500	0.232122
C41	C	0.546768	0.518243	0.654657
C42	C	0.808837	0.483557	0.151932
C43	C	0.599565	0.489900	0.542311
C44	C	0.865276	0.516833	0.044146
C45	C	0.929667	0.102854	0.468008
C46	C	0.673770	0.890944	0.972900
C47	C	0.557822	0.401120	0.463347
C48	C	0.820017	0.602876	0.961991
F1	F	0.179904	0.847364	0.571784
F2	F	0.197792	0.121383	0.344992
F3	F	0.029192	0.712439	0.714861
F4	F	0.571821	0.354641	0.085907
F5	F	0.941639	0.872539	0.842336
F6	F	0.717702	0.213992	0.218090
F7	F	0.540753	0.633679	0.832280
F8	F	0.809158	0.376668	0.337611
H1	H	0.267422	0.997818	0.443898
H2	H	0.461496	-0.065470	1.028513
H3	H	0.020919	1.011228	0.685906
H4	H	0.265637	0.972220	0.193402
H5	H	0.291678	0.440333	0.534011
H6	H	0.011315	0.493376	0.936275
H7	H	0.349565	0.592896	0.677159
H8	H	0.077457	0.347445	0.084322
H9	H	0.400930	0.082658	0.172342
H10	H	0.464657	0.848940	0.820535
H11	H	0.283043	0.336309	0.310347
H12	H	0.475394	0.477556	0.687144
H13	H	0.193847	0.482778	0.185414
H14	H	0.736415	0.998255	0.436306
H15	H	1.010995	0.037177	0.911670
H16	H	0.551617	0.992350	0.693549
H17	H	0.786126	1.050497	0.092631
H18	H	0.735619	0.525701	0.422134
H19	H	0.483852	0.511250	0.963431
H20	H	0.804982	0.668462	0.573352
H21	H	0.668461	0.853264	0.581013
H22	H	0.941275	0.173527	0.066366
H23	H	0.964453	0.546436	0.586480
H24	H	0.731539	0.516124	0.177246
N1	N	0.325809	0.845379	0.706922
N2	N	0.061970	0.151084	0.204313
N3	N	0.197316	0.649370	0.705574
N4	N	0.423921	0.342457	0.208432
N5	N	0.799245	0.856446	0.707712
N6	N	0.551619	0.145174	0.205269
N7	N	0.681094	0.654004	0.701848
N8	N	0.949113	0.355096	0.207457
Ni1	Ni	0.249250	0.755577	0.836520
Ni2	Ni	0.499930	0.249265	0.339192
Ni3	Ni	0.744160	0.750689	0.836201
Ni4	Ni	1.004333	0.249067	0.340148
O1	O	0.133321	0.339096	0.388958
O2	O	0.348362	0.652988	0.910461
O3	O	0.395768	0.145748	0.396233
O4	O	0.144563	0.876567	0.850447
O5	O	0.470175	0.352333	0.487697
O6	O	0.190376	0.631598	0.990125
O7	O	0.023495	0.141164	0.489406
O8	O	0.274275	0.856408	0.988925
O9	O	0.606321	0.364323	0.364085
O10	O	0.869166	0.646597	0.867943
O11	O	0.879597	0.146008	0.371391
O12	O	0.618416	0.840588	0.885700
O13	O	0.982427	0.358966	0.483205
O14	O	0.726193	0.641102	0.980198
O15	O	0.552628	0.134632	0.487056
O16	O	0.770824	0.860269	0.984206
