data_NiPyC2_relax_sc211_meta_functionalized_F_pbesol_relax_PM
_symmetry_space_group_name_H-M	'P1'
_cell_length_a	12.505617
_cell_length_b	12.523412
_cell_length_c	10.276810
_cell_angle_alpha	90.000000
_cell_angle_beta	91.268973
_cell_angle_gamma	90.000000
_symmetry_Int_Tables_number 1

loop_
_symmetry_equiv_pos_as_xyz
'x,y,z'

loop_
_atom_site_label
_atom_site_type_symbol
_atom_site_fract_x
_atom_site_fract_y
_atom_site_fract_z
C1	C	0.285118	0.979579	0.530630
C2	C	0.038949	0.033993	0.027000
C3	C	0.390206	0.016076	0.545741
C4	C	0.140810	0.987695	0.046556
C5	C	0.453312	0.965048	0.642581
C6	C	0.202012	0.029036	0.150207
C7	C	0.212360	0.529461	0.533748
C8	C	0.459146	0.477407	0.034491
C9	C	0.248184	0.613787	0.614601
C10	C	0.495993	0.392376	0.112371
C11	C	0.246727	0.897848	0.610297
C12	C	0.001179	0.113916	0.111038
C13	C	0.411645	0.881074	0.718317
C14	C	0.161464	0.109771	0.229994
C15	C	0.087850	0.611519	0.725173
C16	C	0.335244	0.383492	0.221664
C17	C	0.048647	0.527536	0.647279
C18	C	0.294557	0.469531	0.145975
C19	C	0.110810	0.483037	0.549775
C20	C	0.356494	0.518615	0.049696
C21	C	0.432542	0.103587	0.466750
C22	C	0.181657	0.900676	0.965265
C23	C	0.070524	0.393084	0.470929
C24	C	0.315543	0.607967	0.969916
C25	C	0.788089	0.964323	0.522368
C26	C	0.532432	0.029388	0.028485
C27	C	0.891268	0.008090	0.540937
C28	C	0.637501	0.988955	0.040372
C29	C	0.953681	0.961913	0.640174
C30	C	0.702460	0.038145	0.134976
C31	C	0.711224	0.528263	0.533710
C32	C	0.959859	0.475108	0.034455
C33	C	0.747893	0.611279	0.615711
C34	C	0.997006	0.390423	0.112613
C35	C	0.750296	0.882848	0.604578
C36	C	0.495481	0.109904	0.112719
C37	C	0.912894	0.880188	0.718513
C38	C	0.662703	0.119749	0.214630
C39	C	0.587055	0.609968	0.725851
C40	C	0.836527	0.381842	0.222720
C41	C	0.547147	0.527072	0.646959
C42	C	0.795564	0.467497	0.146768
C43	C	0.609119	0.483015	0.549042
C44	C	0.857246	0.516260	0.050047
C45	C	0.932513	0.097985	0.464244
C46	C	0.678190	0.899508	0.962204
C47	C	0.568269	0.394212	0.469191
C48	C	0.816048	0.605585	0.970590
F1	F	0.551981	-0.005531	0.667897
F2	F	0.974698	1.006209	0.930609
F3	F	0.278296	0.497501	0.444678
F4	F	0.197875	0.502531	0.170819
F5	F	0.722561	-0.003795	0.429432
F6	F	0.463705	0.994841	0.940391
F7	F	0.776912	0.496311	0.444350
F8	F	0.699015	0.500681	0.171862
H1	H	0.230902	1.015343	0.459007
H2	H	0.034037	0.990757	0.661123
H3	H	0.281733	0.998168	0.171200
H4	H	0.013147	0.509485	0.963703
H5	H	0.327754	0.647046	0.602080
H6	H	0.076710	0.357852	0.103103
H7	H	0.164729	0.869675	0.602294
H8	H	0.412842	0.136912	0.104193
H9	H	0.462090	0.843786	0.792951
H10	H	0.208299	0.142500	0.310691
H11	H	0.040914	0.645454	0.802550
H12	H	0.285790	0.348215	0.296076
H13	H	0.467544	0.496085	0.664164
H14	H	0.784377	1.011798	0.150954
H15	H	0.512737	0.511800	0.964092
H16	H	0.827867	0.643799	0.604060
H17	H	0.575624	0.359695	0.102805
H18	H	0.669547	0.852272	0.590401
H19	H	0.921206	0.146613	0.095674
H20	H	0.960340	0.845621	0.797176
H21	H	0.712411	0.156262	0.289881
H22	H	0.540518	0.644014	0.803526
H23	H	0.787528	0.346838	0.297725
H24	H	0.969348	0.496052	0.665125
N1	N	0.309599	0.850892	0.703206
N2	N	0.061836	0.150025	0.210488
N3	N	0.186824	0.652834	0.708384
N4	N	0.435053	0.348225	0.205596
N5	N	0.811487	0.844236	0.702083
N6	N	0.559802	0.152612	0.204644
N7	N	0.686529	0.650193	0.709579
N8	N	0.936303	0.346548	0.206288
Ni1	Ni	0.249652	0.754678	0.836611
Ni2	Ni	0.499735	0.249372	0.339191
Ni3	Ni	0.749211	0.751542	0.836966
Ni4	Ni	1.000285	0.248276	0.339825
O1	O	0.125793	0.342518	0.386514
O2	O	0.372863	0.654670	0.883858
O3	O	0.375531	0.151514	0.378261
O4	O	0.126499	0.853668	0.874777
O5	O	0.472512	0.358967	0.480343
O6	O	0.220575	0.645366	0.978005
O7	O	0.028514	0.132585	0.480271
O8	O	0.277108	0.864423	0.980233
O9	O	0.623265	0.344817	0.383453
O10	O	0.873154	0.652707	0.884669
O11	O	0.877145	0.149061	0.377329
O12	O	0.622218	0.846697	0.877718
O13	O	0.974559	0.358065	0.481608
O14	O	0.720957	0.642660	0.978957
O15	O	0.528295	0.139162	0.478577
O16	O	0.775233	0.866573	0.974642
