data_NiPyC2_experiment_NiPyC2_experiment_aligned_CH2-CH2-CH3_NiPyC2_experiment_aligned_CH2-CH2-CH3_NiPyC2_experiment_aligned_CH2-CH2-CH3_NiPyC2_experiment_aligned_CH2-CH2-CH3_NiPyC2_experiment_aligned_CH2-CH2-CH3_NiPyC2_experiment_aligned_CH2-CH2-CH3_NiPyC2_experiment_aligned_CH2-CH2-CH3_NiPyC2_experiment_aligned_CH2-CH2-CH3_PM
_symmetry_space_group_name_H-M	'P1'
_cell_length_a	12.505600
_cell_length_b	12.523400
_cell_length_c	10.276800
_cell_angle_alpha	90.000000
_cell_angle_beta	91.269000
_cell_angle_gamma	90.000000
_symmetry_Int_Tables_number 1

loop_
_symmetry_equiv_pos_as_xyz
'x,y,z'

loop_
_atom_site_label
_atom_site_type_symbol
_atom_site_fract_x
_atom_site_fract_y
_atom_site_fract_z
Ni1	Ni	0.247400	0.753960	0.839430
O1	O	0.120650	0.349620	0.392900
O2	O	0.377450	0.133080	0.370200
O3	O	0.468450	0.352230	0.497300
O4	O	0.033250	0.119800	0.474200
N1	N	0.313950	0.842900	0.696200
N2	N	0.180550	0.646100	0.715100
C1	C	0.293900	0.959300	0.513400
C2	C	0.396600	0.998000	0.533700
C3	C	0.458550	0.954600	0.635400
C4	C	0.203850	0.519100	0.544100
C5	C	0.240150	0.603200	0.621700
H1	H	0.309550	0.631300	0.607900
C6	C	0.255750	0.880900	0.595000
H2	H	0.186050	0.853000	0.579100
C7	C	0.414250	0.877700	0.713700
H3	H	0.456650	0.848300	0.782600
C8	C	0.082250	0.604500	0.734600
H4	H	0.039650	0.634600	0.800700
C9	C	0.041300	0.520300	0.662600
C10	C	0.103950	0.477000	0.564600
C11	C	0.439000	0.089300	0.455000
C12	C	0.061000	0.386200	0.481500
Ni2	Ni	0.497400	0.246040	0.339430
O5	O	0.370650	0.650380	0.892900
O6	O	0.127450	0.866920	0.870200
O7	O	0.218450	0.647770	0.997300
O8	O	0.283250	0.880200	0.974200
N3	N	0.063950	0.157100	0.196200
N4	N	0.430550	0.353900	0.215100
C13	C	0.043900	0.040700	0.013400
C14	C	0.146600	0.002000	0.033700
C15	C	0.208550	0.045400	0.135400
H5	H	0.280100	0.022200	0.150500
C16	C	0.453850	0.480900	0.044100
C17	C	0.490150	0.396800	0.121700
H6	H	0.059550	0.368700	0.107900
C18	C	0.005750	0.119100	0.095000
H7	H	0.436050	0.147000	0.079100
C19	C	0.164250	0.122300	0.213700
H8	H	0.206650	0.151700	0.282600
C20	C	0.332250	0.395500	0.234600
H9	H	0.289650	0.365400	0.300700
C21	C	0.291300	0.479700	0.162600
H10	H	0.222300	0.507500	0.179100
C22	C	0.353950	0.523000	0.064600
C23	C	0.189000	0.910700	0.955000
C24	C	0.311000	0.613800	0.981500
Ni3	Ni	0.747400	0.753960	0.839430
O9	O	0.620650	0.349620	0.392900
O10	O	0.877450	0.133080	0.370200
O11	O	0.968450	0.352230	0.497300
O12	O	0.533250	0.119800	0.474200
N5	N	0.813950	0.842900	0.696200
N6	N	0.680550	0.646100	0.715100
C25	C	0.793900	0.959300	0.513400
H11	H	0.750100	0.986200	0.444100
C26	C	0.896600	0.998000	0.533700
C27	C	0.958550	0.954600	0.635400
H12	H	0.530100	0.977800	0.650500
C28	C	0.703850	0.519100	0.544100
H13	H	0.747550	0.491000	0.477800
C29	C	0.740150	0.603200	0.621700
H14	H	0.809550	0.631300	0.607900
C30	C	0.755750	0.880900	0.595000
H15	H	0.686050	0.853000	0.579100
C31	C	0.914250	0.877700	0.713700
H16	H	0.956650	0.848300	0.782600
C32	C	0.582250	0.604500	0.734600
H17	H	0.539650	0.634600	0.800700
C33	C	0.541300	0.520300	0.662600
H18	H	0.972300	0.492500	0.679100
C34	C	0.603950	0.477000	0.564600
C35	C	0.939000	0.089300	0.455000
C36	C	0.561000	0.386200	0.481500
Ni4	Ni	0.997400	0.246040	0.339430
O13	O	0.870650	0.650380	0.892900
O14	O	0.627450	0.866920	0.870200
O15	O	0.718450	0.647770	0.997300
O16	O	0.783250	0.880200	0.974200
N7	N	0.563950	0.157100	0.196200
N8	N	0.930550	0.353900	0.215100
C37	C	0.543900	0.040700	0.013400
H19	H	0.500100	0.013800	0.944100
C38	C	0.646600	0.002000	0.033700
C39	C	0.708550	0.045400	0.135400
C40	C	0.953850	0.480900	0.044100
C41	C	0.990150	0.396800	0.121700
H20	H	0.559550	0.368700	0.107900
C42	C	0.505750	0.119100	0.095000
H21	H	0.936050	0.147000	0.079100
C43	C	0.664250	0.122300	0.213700
H22	H	0.706650	0.151700	0.282600
C44	C	0.832250	0.395500	0.234600
H23	H	0.789650	0.365400	0.300700
C45	C	0.791300	0.479700	0.162600
H24	H	0.722300	0.507500	0.179100
C46	C	0.853950	0.523000	0.064600
C47	C	0.689000	0.910700	0.955000
C48	C	0.811000	0.613800	0.981500
C49	C	0.221734	1.002632	0.400945
C50	C	0.109015	0.954187	0.386981
H25	H	0.211937	1.090005	0.415660
H26	H	0.263143	0.987814	0.308045
C51	C	0.046827	1.003967	0.272757
H27	H	0.115003	0.866778	0.369655
H28	H	0.063831	0.968905	0.477203
H29	H	0.088900	0.989531	0.180318
H30	H	-0.034040	0.967591	0.264996
H31	H	0.037880	1.091355	0.287548
C52	C	0.276227	0.474569	0.436495
C53	C	0.386318	0.527544	0.422034
H32	H	0.232456	0.483298	0.341752
H33	H	0.290390	0.388524	0.457168
C54	C	0.448698	0.475737	0.312693
H34	H	0.433809	0.518973	0.514185
H35	H	0.375910	0.613687	0.398843
H36	H	0.462016	0.389641	0.333423
H37	H	0.527644	0.515461	0.304466
H38	H	0.404287	0.484073	0.218422
C55	C	-0.028265	-0.002630	-0.099057
C56	C	-0.140982	0.045818	-0.113025
H39	H	0.013146	0.012187	-0.191957
H40	H	-0.038064	-0.090003	-0.084342
C57	C	-0.203169	-0.003959	-0.227252
H41	H	-0.186170	0.031102	-0.022804
H42	H	-0.134990	0.133227	-0.130349
H43	H	-0.212121	-0.091347	-0.212461
H44	H	-0.284034	0.032421	-0.235016
H45	H	-0.161092	0.010475	-0.319688
C58	C	0.526227	0.525431	-0.063505
C59	C	0.636318	0.472456	-0.077966
H46	H	0.482456	0.516702	-0.158248
H47	H	0.540390	0.611476	-0.042832
C60	C	0.698698	0.524263	-0.187307
H48	H	0.683809	0.481027	0.014185
H49	H	0.625910	0.386313	-0.101157
H50	H	0.712016	0.610359	-0.166577
H51	H	0.777644	0.484539	-0.195534
H52	H	0.654287	0.515927	-0.281578
C61	C	1.075007	0.991992	0.660107
C62	C	1.136138	0.939098	0.774555
H53	H	1.073660	1.079343	0.679293
H54	H	1.120758	0.975820	0.570695
C63	C	1.249718	0.983019	0.788226
H55	H	1.141157	0.851493	0.758245
H56	H	1.094087	0.954950	0.866773
H57	H	1.294845	0.967267	0.698323
H58	H	1.291883	0.943523	0.871382
H59	H	1.247914	1.070419	0.806529
C64	C	0.429337	0.475326	0.689768
C65	C	0.367657	0.529157	0.799801
H60	H	0.438296	0.389541	0.715621
H61	H	0.379678	0.483077	0.599188
C66	C	0.258383	0.477199	0.816564
H62	H	0.355105	0.615057	0.776791
H63	H	0.413687	0.521580	0.893148
H64	H	0.209366	0.484555	0.725528
H65	H	0.215727	0.517548	0.896436
H66	H	0.267775	0.391355	0.841540
C67	C	0.825007	0.008008	0.160107
C68	C	0.886138	0.060902	0.274555
H67	H	0.823660	-0.079343	0.179293
H68	H	0.870758	0.024180	0.070695
C69	C	0.999718	0.016981	0.288226
H69	H	0.891157	0.148507	0.258245
H70	H	0.844087	0.045050	0.366773
H71	H	1.044845	0.032733	0.198323
H72	H	1.041883	0.056477	0.371382
H73	H	0.997914	-0.070419	0.306529
C70	C	1.026227	0.525431	-0.063505
C71	C	1.136318	0.472456	-0.077966
H74	H	0.982456	0.516702	-0.158248
H75	H	1.040390	0.611476	-0.042832
C72	C	1.198698	0.524263	-0.187307
H76	H	1.183809	0.481027	0.014185
H77	H	1.125910	0.386313	-0.101157
H78	H	1.212016	0.610359	-0.166577
H79	H	1.277644	0.484539	-0.195534
H80	H	1.154287	0.515927	-0.281578

loop_
_geom_bond_atom_site_label_1
_geom_bond_atom_site_label_2
_geom_bond_distance
Ni1	N1	0.18126
Ni1	N2	0.17765
Ni1	O5	0.16964
Ni1	O6	0.16761
Ni1	O7	0.19245
Ni1	O8	0.18811
O1	C12	0.11290
O1	Ni4	0.16964
O2	C11	0.11356
O2	Ni2	0.16761
O3	Ni2	0.19245
O3	C36	0.09985
O4	C35	0.10091
O4	Ni4	0.18811
N1	C6	0.12277
N1	C7	0.10760
N2	C5	0.11881
N2	C8	0.10851
C1	C2	0.11161
C1	C6	0.11942
C1	C49	0.14047
C2	C3	0.12674
C2	C11	0.12778
C3	C7	0.11835
C3	H12	0.07672
C4	C5	0.12005
C4	C10	0.11033
C4	C52	0.13711
C5	H1	0.07613
C6	H2	0.07674
C7	H3	0.08608
C8	H4	0.08420
C8	C9	0.11811
C9	C10	0.12411
C9	H18	0.07620
C10	C12	0.13036
C11	O12	0.10091
C12	O11	0.09985
Ni2	N4	0.17765
Ni2	O9	0.16964
Ni2	O12	0.18811
Ni2	N7	0.18126
O5	C24	0.11290
O6	C23	0.11356
O7	C24	0.09985
O8	C23	0.10091
N3	C18	0.12277
N3	C19	0.10760
N3	Ni4	0.18126
N4	C17	0.11881
N4	C20	0.10851
C13	C14	0.11161
C13	C18	0.11942
C13	C55	0.14047
C14	C15	0.12674
C14	C23	0.12778
C15	H5	0.07672
C15	C19	0.11835
C16	C17	0.12005
C16	C22	0.11033
C16	C58	0.13711
C17	H20	0.07613
H6	C41	0.07613
C18	H21	0.07674
H7	C42	0.07674
C19	H8	0.08608
C20	H9	0.08420
C20	C21	0.11811
C21	H10	0.07620
C21	C22	0.12411
C22	C24	0.13036
Ni3	N5	0.18126
Ni3	N6	0.17765
Ni3	O13	0.16964
Ni3	O14	0.16761
Ni3	O15	0.19245
Ni3	O16	0.18811
O9	C36	0.11290
O10	C35	0.11356
O10	Ni4	0.16761
O11	Ni4	0.19245
N5	C30	0.12277
N5	C31	0.10760
N6	C29	0.11881
N6	C32	0.10851
C25	H11	0.08628
C25	C26	0.11161
C25	C30	0.11942
C26	C27	0.12674
C26	C35	0.12778
C27	C31	0.11835
C27	C61	0.12478
C28	H13	0.08423
C28	C29	0.12005
C28	C34	0.11033
C29	H14	0.07613
C30	H15	0.07674
C31	H16	0.08608
C32	H17	0.08420
C32	C33	0.11811
C33	C34	0.12411
C33	C64	0.12368
C34	C36	0.13036
Ni4	N8	0.17765
O13	C48	0.11290
O14	C47	0.11356
O15	C48	0.09985
O16	C47	0.10091
N7	C42	0.12277
N7	C43	0.10760
N8	C41	0.11881
N8	C44	0.10851
C37	H19	0.08628
C37	C38	0.11161
C37	C42	0.11942
C38	C39	0.12674
C38	C47	0.12778
C39	C43	0.11835
C39	C67	0.12478
C40	C41	0.12005
C40	C46	0.11033
C40	C70	0.13711
C43	H22	0.08608
C44	H23	0.08420
C44	C45	0.11811
C45	H24	0.07620
C45	C46	0.12411
C46	C48	0.13036
C49	C50	0.12348
C49	H25	0.08914
C49	H26	0.10278
C50	C51	0.13926
C50	H27	0.08931
C50	H28	0.10197
C51	H29	0.10258
C51	H30	0.08901
C51	H31	0.08908
C52	C53	0.12303
C52	H32	0.10473
C52	H33	0.08962
C53	C54	0.13613
C53	H34	0.10402
C53	H35	0.08981
C54	H36	0.08955
C54	H37	0.08876
C54	H38	0.10454
C55	C56	0.12348
C55	H39	0.10278
C55	H40	0.08914
C56	C57	0.13926
C56	H41	0.10197
C56	H42	0.08931
C57	H43	0.08908
C57	H44	0.08901
C57	H45	0.10258
C58	C59	0.12303
C58	H46	0.10473
C58	H47	0.08962
C59	C60	0.13613
C59	H48	0.10402
C59	H49	0.08981
C60	H50	0.08955
C60	H51	0.08876
C60	H52	0.10454
C61	C62	0.14012
C61	H53	0.08944
C61	H54	0.10173
C62	C63	0.12254
C62	H55	0.08925
C62	H56	0.10258
C63	H57	0.10182
C63	H58	0.10126
C63	H59	0.08931
C64	C65	0.13715
C64	H60	0.09004
C64	H61	0.10359
C65	C66	0.12215
C65	H62	0.08981
C65	H63	0.10435
C66	H64	0.10365
C66	H65	0.09913
C66	H66	0.08990
C67	C68	0.14012
C67	H67	0.08944
C67	H68	0.10173
C68	C69	0.12254
C68	H69	0.08925
C68	H70	0.10258
C69	H71	0.10182
C69	H72	0.10126
C69	H73	0.08931
C70	C71	0.12303
C70	H74	0.10473
C70	H75	0.08962
C71	C72	0.13613
C71	H76	0.10402
C71	H77	0.08981
C72	H78	0.08955
C72	H79	0.08876
C72	H80	0.10454
